# SFR package for MODFLOW-NWT generated by Flopy 3.5.0.dev0
OPTIONS
REACHINPUT
TABFILES 135 9496
END
3771 709 0 0 86400.00000000 0.00010000 55 81 1 
1 10 68 1 1 300.0 422.1099853515625 0.03170805051922798 0.5 0.05657234415411949
1 11 68 1 2 362.0 406.2900085449219 0.03170805051922798 0.5 0.05657234415411949
1 12 69 1 3 424.0 381.239990234375 0.03170805051922798 0.5 0.05657234415411949
1 13 70 1 4 424.0 366.5400085449219 0.03170805051922798 0.5 0.05657234415411949
1 14 69 1 5 362.0 358.6099853515625 0.03170805051922798 0.5 0.05657234415411949
1 15 69 1 6 362.0 351.2099914550781 0.03170805051922798 0.5 0.05657234415411949
1 16 68 1 7 424.0 337.8299865722656 0.03170805051922798 0.5 0.05657234415411949
1 13 46 2 1 424.0 360.69000244140625 0.021233737468719482 0.5 0.0022097949404269457
1 14 47 2 2 362.0 349.239990234375 0.021233737468719482 0.5 0.0022097949404269457
1 15 47 2 3 300.0 336.9100036621094 0.021233737468719482 0.5 0.0022097949404269457
1 16 47 2 4 300.0 326.6199951171875 0.021233737468719482 0.5 0.0022097949404269457
1 17 47 2 5 300.0 320.92999267578125 0.021233737468719482 0.5 0.0022097949404269457
1 18 47 2 6 362.0 314.760009765625 0.021233737468719482 0.5 0.0022097949404269457
1 19 48 2 7 362.0 301.19000244140625 0.021233737468719482 0.5 0.0022097949404269457
1 20 48 2 8 300.0 289.07000732421875 0.021233737468719482 0.5 0.0022097949404269457
1 21 48 2 9 362.0 280.04998779296875 0.021233737468719482 0.5 0.0022097949404269457
1 22 49 2 10 362.0 276.7900085449219 0.021233737468719482 0.5 0.0022097949404269457
1 23 49 2 11 300.0 272.7900085449219 0.021233737468719482 0.5 0.0022097949404269457
1 24 49 2 12 362.0 269.9800109863281 0.021233737468719482 0.5 0.0022097949404269457
1 25 50 2 13 362.0 266.0299987792969 0.021233737468719482 0.5 0.0022097949404269457
1 14 64 3 1 424.0 373.2099914550781 0.03476415202021599 0.5 0.05657234415411949
1 15 65 3 2 424.0 363.2200012207031 0.03476415202021599 0.5 0.05657234415411949
1 16 66 3 3 424.0 328.989990234375 0.03476415202021599 0.5 0.05657234415411949
1 17 67 4 1 636.0 325.0199890136719 0.00585602642968297 0.5 0.05657234415411949
1 18 68 4 2 424.0 322.8399963378906 0.00585602642968297 0.5 0.05657234415411949
1 19 69 4 3 362.0 319.1600036621094 0.00585602642968297 0.5 0.05657234415411949
1 20 69 4 4 362.0 315.6700134277344 0.00585602642968297 0.5 0.05657234415411949
1 21 70 4 5 424.0 313.07000732421875 0.00585602642968297 0.5 0.05657234415411949
1 22 71 4 6 362.0 309.9700012207031 0.00585602642968297 0.5 0.05657234415411949
1 17 76 5 1 424.0 307.21209716796875 0.006071881856769323 0.5 0.05657234415411949
1 18 77 5 2 362.0 301.1120910644531 0.006071881856769323 0.5 0.05657234415411949
1 19 77 5 3 362.0 300.0220947265625 0.006071881856769323 0.5 0.05657234415411949
1 20 78 5 4 424.0 299.1820983886719 0.006071881856769323 0.5 0.05657234415411949
1 21 79 5 5 424.0 295.34210205078125 0.006071881856769323 0.5 0.05657234415411949
1 22 80 5 6 362.0 289.662109375 0.006071881856769323 0.5 0.05657234415411949
1 23 80 5 7 362.0 289.3221130371094 0.006071881856769323 0.5 0.05657234415411949
1 24 81 5 8 424.0 288.1221008300781 0.006071881856769323 0.5 0.05657234415411949
1 19 56 6 1 424.0 328.75 0.022123774513602257 0.5 0.0022097949404269457
1 20 55 6 2 424.0 316.6600036621094 0.022123774513602257 0.5 0.0022097949404269457
1 21 54 6 3 362.0 301.9100036621094 0.022123774513602257 0.5 0.0022097949404269457
1 22 54 6 4 362.0 291.32000732421875 0.022123774513602257 0.5 0.0022097949404269457
1 23 53 6 5 424.0 282.010009765625 0.022123774513602257 0.5 0.0022097949404269457
1 24 52 6 6 424.0 270.0400085449219 0.022123774513602257 0.5 0.0022097949404269457
1 25 51 6 7 424.0 265.8299865722656 0.022123774513602257 0.5 0.0022097949404269457
1 20 83 7 1 424.0 305.9100036621094 0.00806101132184267 0.5 0.05657234415411949
1 21 82 7 2 424.0 299.92999267578125 0.00806101132184267 0.5 0.05657234415411949
1 22 81 7 3 362.0 293.7099914550781 0.00806101132184267 0.5 0.05657234415411949
1 23 81 7 4 362.0 292.0 0.00806101132184267 0.5 0.05657234415411949
1 24 82 7 5 362.0 290.32000732421875 0.00806101132184267 0.5 0.05657234415411949
1 22 72 8 1 512.0 308.1000061035156 0.0044290428049862385 0.5 0.05657234415411949
1 22 73 8 2 300.0 305.6700134277344 0.0044290428049862385 0.5 0.05657234415411949
1 22 74 8 3 362.0 304.70001220703125 0.0044290428049862385 0.5 0.05657234415411949
1 21 75 8 4 424.0 303.3500061035156 0.0044290428049862385 0.5 0.05657234415411949
1 22 76 8 5 424.0 301.67999267578125 0.0044290428049862385 0.5 0.05657234415411949
1 23 77 8 6 362.0 299.54998779296875 0.0044290428049862385 0.5 0.05657234415411949
1 24 77 8 7 362.0 298.2799987792969 0.0044290428049862385 0.5 0.05657234415411949
1 25 78 8 8 424.0 297.1600036621094 0.0044290428049862385 0.5 0.05657234415411949
1 24 79 8 9 424.0 293.3900146484375 0.0044290428049862385 0.5 0.05657234415411949
1 25 80 8 10 362.0 291.42999267578125 0.0044290428049862385 0.5 0.05657234415411949
1 25 81 8 11 300.0 289.25 0.0044290428049862385 0.5 0.05657234415411949
1 23 8 9 1 424.0 482.0 0.015614258125424385 0.5 0.0022097949404269457
1 24 9 9 2 362.0 467.6099853515625 0.015614258125424385 0.5 0.0022097949404269457
1 25 9 9 3 362.0 455.0400085449219 0.015614258125424385 0.5 0.0022097949404269457
1 26 10 9 4 424.0 425.8399963378906 0.015614258125424385 0.5 0.0022097949404269457
1 27 11 9 5 424.0 411.17999267578125 0.015614258125424385 0.5 0.0022097949404269457
1 28 12 9 6 424.0 398.70001220703125 0.015614258125424385 0.5 0.0022097949404269457
1 29 13 9 7 362.0 398.67999267578125 0.015614258125424385 0.5 0.0022097949404269457
1 30 13 9 8 362.0 395.4599914550781 0.015614258125424385 0.5 0.0022097949404269457
1 31 14 9 9 362.0 390.25 0.015614258125424385 0.5 0.0022097949404269457
1 31 15 9 10 300.0 390.239990234375 0.015614258125424385 0.5 0.0022097949404269457
1 31 16 9 11 362.0 390.2300109863281 0.015614258125424385 0.5 0.0022097949404269457
1 32 17 9 12 424.0 387.7799987792969 0.015614258125424385 0.5 0.0022097949404269457
1 33 18 9 13 362.0 382.2200012207031 0.015614258125424385 0.5 0.0022097949404269457
1 33 19 9 14 300.0 379.0 0.015614258125424385 0.5 0.0022097949404269457
1 33 20 9 15 300.0 376.6700134277344 0.015614258125424385 0.5 0.0022097949404269457
1 33 21 9 16 300.0 374.9200134277344 0.015614258125424385 0.5 0.0022097949404269457
1 33 22 9 17 362.0 372.9800109863281 0.015614258125424385 0.5 0.0022097949404269457
1 34 23 9 18 424.0 370.2200012207031 0.015614258125424385 0.5 0.0022097949404269457
1 35 24 9 19 424.0 366.4700012207031 0.015614258125424385 0.5 0.0022097949404269457
1 36 25 9 20 424.0 362.6199951171875 0.015614258125424385 0.5 0.0022097949404269457
1 37 26 9 21 424.0 358.4599914550781 0.015614258125424385 0.5 0.0022097949404269457
1 23 44 10 1 424.0 417.4100036621094 0.06889963150024414 0.5 0.0022097949404269457
1 24 45 10 2 424.0 385.0299987792969 0.06889963150024414 0.5 0.0022097949404269457
1 25 46 10 3 362.0 352.6300048828125 0.06889963150024414 0.5 0.0022097949404269457
1 25 47 10 4 300.0 296.95001220703125 0.06889963150024414 0.5 0.0022097949404269457
1 25 48 10 5 300.0 280.1400146484375 0.06889963150024414 0.5 0.0022097949404269457
1 25 49 10 6 362.0 267.760009765625 0.06889963150024414 0.5 0.0022097949404269457
1 23 64 11 1 424.0 388.04998779296875 0.024956952780485153 0.5 0.05657234415411949
1 24 65 11 2 362.0 361.739990234375 0.024956952780485153 0.5 0.05657234415411949
1 24 66 11 3 362.0 344.8900146484375 0.024956952780485153 0.5 0.05657234415411949
1 25 67 11 4 424.0 337.3500061035156 0.024956952780485153 0.5 0.05657234415411949
1 24 68 11 5 362.0 328.54998779296875 0.024956952780485153 0.5 0.05657234415411949
1 24 69 11 6 300.0 324.6000061035156 0.024956952780485153 0.5 0.05657234415411949
1 24 70 11 7 362.0 319.5 0.024956952780485153 0.5 0.05657234415411949
1 23 71 11 8 424.0 312.67999267578125 0.024956952780485153 0.5 0.05657234415411949
1 25 20 12 1 300.0 549.6900024414062 0.037047382444143295 0.5 0.0022097949404269457
1 25 21 12 2 362.0 536.6599731445312 0.037047382444143295 0.5 0.0022097949404269457
1 26 22 12 3 424.0 512.1799926757812 0.037047382444143295 0.5 0.0022097949404269457
1 27 23 12 4 424.0 463.54998779296875 0.037047382444143295 0.5 0.0022097949404269457
1 28 24 12 5 362.0 400.94000244140625 0.037047382444143295 0.5 0.0022097949404269457
1 29 24 12 6 300.0 385.8299865722656 0.037047382444143295 0.5 0.0022097949404269457
1 30 24 12 7 362.0 378.010009765625 0.037047382444143295 0.5 0.0022097949404269457
1 31 25 12 8 362.0 374.92999267578125 0.037047382444143295 0.5 0.0022097949404269457
1 32 25 12 9 362.0 372.4100036621094 0.037047382444143295 0.5 0.0022097949404269457
1 33 24 12 10 362.0 369.54998779296875 0.037047382444143295 0.5 0.0022097949404269457
1 34 24 12 11 362.0 368.1000061035156 0.037047382444143295 0.5 0.0022097949404269457
1 35 25 12 12 424.0 364.5899963378906 0.037047382444143295 0.5 0.0022097949404269457
1 36 26 12 13 424.0 360.7900085449219 0.037047382444143295 0.5 0.0022097949404269457
1 37 27 12 14 362.0 357.3399963378906 0.037047382444143295 0.5 0.0022097949404269457
1 25 82 13 1 662.0 286.9200134277344 0.002120591001585126 0.5 0.05657234415411949
1 26 82 13 2 300.0 285.989990234375 0.002120591001585126 0.5 0.05657234415411949
1 26 83 13 3 300.0 285.7799987792969 0.002120591001585126 0.5 0.05657234415411949
1 27 83 13 4 300.0 285.7699890136719 0.002120591001585126 0.5 0.05657234415411949
1 28 83 13 5 300.0 285.70001220703125 0.002120591001585126 0.5 0.05657234415411949
1 29 83 13 6 300.0 285.1499938964844 0.002120591001585126 0.5 0.05657234415411949
1 30 83 13 7 362.0 284.010009765625 0.002120591001585126 0.5 0.05657234415411949
1 31 84 13 8 362.0 280.79998779296875 0.002120591001585126 0.5 0.05657234415411949
1 26 50 14 1 724.0 262.20001220703125 0.005375622306019068 0.5 0.0022097949404269457
1 27 50 14 2 300.0 258.3399963378906 0.005375622306019068 0.5 0.0022097949404269457
1 28 50 14 3 300.0 254.89999389648438 0.005375622306019068 0.5 0.0022097949404269457
1 29 50 14 4 300.0 253.47000122070312 0.005375622306019068 0.5 0.0022097949404269457
1 28 54 15 1 300.0 275.5899963378906 0.01595238223671913 0.5 0.0022097949404269457
1 28 53 15 2 300.0 265.32000732421875 0.01595238223671913 0.5 0.0022097949404269457
1 28 52 15 3 362.0 257.42999267578125 0.01595238223671913 0.5 0.0022097949404269457
1 29 51 15 4 424.0 253.47999572753906 0.01595238223671913 0.5 0.0022097949404269457
1 33 68 16 1 300.0 330.7799987792969 0.008462582714855671 0.5 0.05657234415411949
1 33 69 16 2 362.0 325.44000244140625 0.008462582714855671 0.5 0.05657234415411949
1 32 70 16 3 362.0 319.260009765625 0.008462582714855671 0.5 0.05657234415411949
1 32 71 16 4 362.0 316.3900146484375 0.008462582714855671 0.5 0.05657234415411949
1 31 72 16 5 424.0 312.19000244140625 0.008462582714855671 0.5 0.05657234415411949
1 30 73 16 6 424.0 305.42999267578125 0.008462582714855671 0.5 0.05657234415411949
1 29 74 16 7 362.0 302.1099853515625 0.008462582714855671 0.5 0.05657234415411949
1 29 75 16 8 300.0 299.8800048828125 0.008462582714855671 0.5 0.05657234415411949
1 29 76 16 9 362.0 298.5799865722656 0.008462582714855671 0.5 0.05657234415411949
1 30 77 16 10 362.0 297.7300109863281 0.008462582714855671 0.5 0.05657234415411949
1 30 78 16 11 300.0 296.8900146484375 0.008462582714855671 0.5 0.05657234415411949
1 30 79 16 12 300.0 294.80999755859375 0.008462582714855671 0.5 0.05657234415411949
1 30 80 16 13 300.0 292.55999755859375 0.008462582714855671 0.5 0.05657234415411949
1 30 81 16 14 362.0 290.29998779296875 0.008462582714855671 0.5 0.05657234415411949
1 31 82 16 15 362.0 287.6300048828125 0.008462582714855671 0.5 0.05657234415411949
1 31 83 16 16 300.0 282.7099914550781 0.008462582714855671 0.5 0.05657234415411949
1 32 83 16 17 362.0 280.79998779296875 0.008462582714855671 0.5 0.05657234415411949
1 30 50 17 1 512.0 250.1999969482422 0.00357014499604702 0.5 0.0022097949404269457
1 31 50 17 2 300.0 248.55999755859375 0.00357014499604702 0.5 0.0022097949404269457
1 32 50 17 3 300.0 246.22999572753906 0.00357014499604702 0.5 0.0022097949404269457
1 30 88 18 1 300.0 307.29998779296875 0.01410219818353653 0.5 0.05657234415411949
1 30 87 18 2 362.0 300.6300048828125 0.01410219818353653 0.5 0.05657234415411949
1 31 86 18 3 424.0 294.8800048828125 0.01410219818353653 0.5 0.05657234415411949
1 32 85 18 4 362.0 286.8800048828125 0.01410219818353653 0.5 0.05657234415411949
1 31 43 19 1 424.0 531.010009765625 0.11486722528934479 0.5 0.0022097949404269457
1 32 44 19 2 362.0 462.07000732421875 0.11486722528934479 0.5 0.0022097949404269457
1 32 45 19 3 362.0 395.239990234375 0.11486722528934479 0.5 0.0022097949404269457
1 33 46 19 4 362.0 314.8699951171875 0.11486722528934479 0.5 0.0022097949404269457
1 33 47 19 5 300.0 275.0400085449219 0.11486722528934479 0.5 0.0022097949404269457
1 33 48 19 6 300.0 260.989990234375 0.11486722528934479 0.5 0.0022097949404269457
1 33 49 19 7 300.0 254.17999267578125 0.11486722528934479 0.5 0.0022097949404269457
1 32 84 20 1 450.0 278.54229736328125 9.999999747378752e-05 0.5 0.05657234415411949
1 33 50 21 1 512.0 243.9199981689453 0.004539355635643005 0.5 0.0022097949404269457
1 34 51 21 2 424.0 242.67999267578125 0.004539355635643005 0.5 0.0022097949404269457
1 35 52 21 3 362.0 240.3300018310547 0.004539355635643005 0.5 0.0022097949404269457
1 36 52 21 4 362.0 237.91000366210938 0.004539355635643005 0.5 0.0022097949404269457
1 37 53 21 5 362.0 235.5399932861328 0.004539355635643005 0.5 0.0022097949404269457
1 38 53 21 6 362.0 234.25999450683594 0.004539355635643005 0.5 0.0022097949404269457
1 39 54 21 7 362.0 231.92999267578125 0.004539355635643005 0.5 0.0022097949404269457
1 40 54 21 8 300.0 231.4499969482422 0.004539355635643005 0.5 2.2097949981689453
1 41 54 21 9 300.0 231.44000244140625 0.004539355635643005 0.5 2.2097949981689453
1 42 54 21 10 300.0 230.47000122070312 0.004539355635643005 0.5 2.2097949981689453
1 43 54 21 11 300.0 227.5399932861328 0.004539355635643005 0.5 0.0022097949404269457
1 44 54 21 12 300.0 224.97999572753906 0.004539355635643005 0.5 0.0022097949404269457
1 45 54 21 13 300.0 223.42999267578125 0.004539355635643005 0.5 0.0022097949404269457
1 46 54 21 14 300.0 221.24000549316406 0.004539355635643005 0.5 0.0022097949404269457
1 47 54 21 15 300.0 219.27999877929688 0.004539355635643005 0.5 0.0022097949404269457
1 48 54 21 16 300.0 217.8800048828125 0.004539355635643005 0.5 0.0022097949404269457
1 49 54 21 17 300.0 215.86000061035156 0.004539355635643005 0.5 0.0022097949404269457
1 50 54 21 18 300.0 214.82000732421875 0.004539355635643005 0.5 0.0022097949404269457
1 51 54 21 19 300.0 213.64999389648438 0.004539355635643005 0.5 0.0022097949404269457
1 52 54 21 20 362.0 213.47000122070312 0.004539355635643005 0.5 0.0022097949404269457
1 33 84 22 1 512.0 277.75750732421875 0.0006896521663293242 0.5 0.05657234415411949
1 34 84 22 2 300.0 277.197509765625 0.0006896521663293242 0.5 0.05657234415411949
1 33 98 23 1 424.0 418.510009765625 0.03267550468444824 0.5 0.05657234415411949
1 34 99 23 2 424.0 384.0199890136719 0.03267550468444824 0.5 0.05657234415411949
1 35 98 23 3 362.0 361.92999267578125 0.03267550468444824 0.5 0.05657234415411949
1 36 98 23 4 300.0 351.8500061035156 0.03267550468444824 0.5 0.05657234415411949
1 37 98 23 5 300.0 344.42999267578125 0.03267550468444824 0.5 0.05657234415411949
1 38 98 23 6 362.0 337.54998779296875 0.03267550468444824 0.5 0.05657234415411949
1 39 97 23 7 424.0 326.8999938964844 0.03267550468444824 0.5 0.05657234415411949
1 40 96 23 8 424.0 319.8299865722656 0.03267550468444824 0.5 0.05657234415411949
1 40 74 24 1 300.0 343.29998779296875 0.014893359504640102 0.5 0.05657234415411949
1 39 74 24 2 300.0 334.8800048828125 0.014893359504640102 0.5 0.05657234415411949
1 38 74 24 3 362.0 328.8900146484375 0.014893359504640102 0.5 0.05657234415411949
1 37 75 24 4 424.0 323.17999267578125 0.014893359504640102 0.5 0.05657234415411949
1 36 76 24 5 362.0 310.9800109863281 0.014893359504640102 0.5 0.05657234415411949
1 36 77 24 6 362.0 303.1300048828125 0.014893359504640102 0.5 0.05657234415411949
1 35 78 24 7 424.0 296.7200012207031 0.014893359504640102 0.5 0.05657234415411949
1 34 79 24 8 362.0 293.30999755859375 0.014893359504640102 0.5 0.05657234415411949
1 34 80 24 9 300.0 291.989990234375 0.014893359504640102 0.5 0.05657234415411949
1 34 81 24 10 362.0 287.94000244140625 0.014893359504640102 0.5 0.05657234415411949
1 35 82 24 11 362.0 284.2099914550781 0.014893359504640102 0.5 0.05657234415411949
1 35 83 24 12 300.0 280.45001220703125 0.014893359504640102 0.5 0.05657234415411949
1 35 84 25 1 512.0 277.79998779296875 0.002184697426855564 0.5 0.05657234415411949
1 36 85 25 2 362.0 276.4100036621094 0.002184697426855564 0.5 0.05657234415411949
1 37 85 25 3 300.0 274.54998779296875 0.002184697426855564 0.5 0.05657234415411949
1 38 85 25 4 362.0 273.25 0.002184697426855564 0.5 0.05657234415411949
1 39 84 25 5 362.0 272.8299865722656 0.002184697426855564 0.5 0.05657234415411949
1 40 84 25 6 362.0 272.79998779296875 0.002184697426855564 0.5 0.05657234415411949
1 41 85 25 7 424.0 272.0400085449219 0.002184697426855564 0.5 0.05657234415411949
1 42 86 25 8 362.0 271.1199951171875 0.002184697426855564 0.5 0.05657234415411949
1 43 86 25 9 300.0 270.489990234375 0.002184697426855564 0.5 0.05657234415411949
1 38 27 26 1 574.0 355.5799865722656 0.02172158844769001 0.5 0.0022097949404269457
1 39 28 26 2 424.0 351.9100036621094 0.02172158844769001 0.5 0.0022097949404269457
1 40 29 26 3 362.0 349.5 0.02172158844769001 0.5 0.0022097949404269457
1 40 30 26 4 300.0 346.9800109863281 0.02172158844769001 0.5 0.0022097949404269457
1 40 31 26 5 362.0 345.5299987792969 0.02172158844769001 0.5 0.0022097949404269457
1 41 32 26 6 362.0 333.4100036621094 0.02172158844769001 0.5 0.0022097949404269457
1 41 33 26 7 362.0 322.92999267578125 0.02172158844769001 0.5 0.0022097949404269457
1 42 34 26 8 424.0 306.0400085449219 0.02172158844769001 0.5 0.0022097949404269457
1 43 35 26 9 362.0 290.5199890136719 0.02172158844769001 0.5 0.0022097949404269457
1 43 36 26 10 362.0 278.6700134277344 0.02172158844769001 0.5 0.0022097949404269457
1 44 37 26 11 424.0 263.80999755859375 0.02172158844769001 0.5 0.0022097949404269457
1 45 38 26 12 362.0 249.14999389648438 0.02172158844769001 0.5 0.0022097949404269457
1 45 39 26 13 300.0 243.2100067138672 0.02172158844769001 0.5 0.0022097949404269457
1 46 39 26 14 300.0 240.88999938964844 0.02172158844769001 0.5 0.0022097949404269457
1 38 103 27 1 300.0 489.1499938964844 0.06306277215480804 0.5 0.05657234415411949
1 38 102 27 2 300.0 471.7200012207031 0.06306277215480804 0.5 0.05657234415411949
1 38 101 27 3 362.0 442.8900146484375 0.06306277215480804 0.5 0.05657234415411949
1 39 100 27 4 362.0 385.5400085449219 0.06306277215480804 0.5 0.05657234415411949
1 39 99 27 5 300.0 355.54998779296875 0.06306277215480804 0.5 0.05657234415411949
1 39 98 27 6 362.0 333.4100036621094 0.06306277215480804 0.5 0.05657234415411949
1 40 97 27 7 424.0 321.9100036621094 0.06306277215480804 0.5 0.05657234415411949
1 41 96 27 8 362.0 314.3399963378906 0.06306277215480804 0.5 0.05657234415411949
1 46 9 28 1 300.0 484.17999267578125 0.0214933343231678 0.5 0.0022097949404269457
1 45 9 28 2 300.0 479.2900085449219 0.0214933343231678 0.5 0.0022097949404269457
1 44 9 28 3 300.0 475.17999267578125 0.0214933343231678 0.5 0.0022097949404269457
1 43 9 28 4 300.0 474.1199951171875 0.0214933343231678 0.5 0.0022097949404269457
1 42 9 28 5 362.0 470.8399963378906 0.0214933343231678 0.5 0.0022097949404269457
1 41 10 28 6 424.0 461.7799987792969 0.0214933343231678 0.5 0.0022097949404269457
1 40 11 28 7 362.0 457.94000244140625 0.0214933343231678 0.5 0.0022097949404269457
1 40 12 28 8 300.0 456.1600036621094 0.0214933343231678 0.5 0.0022097949404269457
1 40 13 28 9 362.0 453.1000061035156 0.0214933343231678 0.5 0.0022097949404269457
1 41 14 28 10 362.0 448.0 0.0214933343231678 0.5 0.0022097949404269457
1 41 15 28 11 300.0 444.6300048828125 0.0214933343231678 0.5 0.0022097949404269457
1 41 16 28 12 362.0 440.6600036621094 0.0214933343231678 0.5 0.0022097949404269457
1 40 17 28 13 362.0 421.80999755859375 0.0214933343231678 0.5 0.0022097949404269457
1 40 18 28 14 300.0 411.1099853515625 0.0214933343231678 0.5 0.0022097949404269457
1 40 19 28 15 362.0 397.6400146484375 0.0214933343231678 0.5 0.0022097949404269457
1 41 20 28 16 424.0 380.94000244140625 0.0214933343231678 0.5 0.0022097949404269457
1 42 21 28 17 362.0 362.3599853515625 0.0214933343231678 0.5 0.0022097949404269457
1 43 21 28 18 362.0 353.19000244140625 0.0214933343231678 0.5 0.0022097949404269457
1 44 22 28 19 362.0 337.8900146484375 0.0214933343231678 0.5 0.0022097949404269457
1 44 23 28 20 300.0 334.05999755859375 0.0214933343231678 0.5 0.0022097949404269457
1 44 24 28 21 362.0 327.4700012207031 0.0214933343231678 0.5 0.0022097949404269457
1 45 25 28 22 424.0 319.6700134277344 0.0214933343231678 0.5 0.0022097949404269457
1 41 95 29 1 512.0 309.07000732421875 0.010913519188761711 0.5 0.05657234415411949
1 41 94 29 2 300.0 304.4200134277344 0.010913519188761711 0.5 0.05657234415411949
1 41 93 29 3 362.0 299.29998779296875 0.010913519188761711 0.5 0.05657234415411949
1 42 92 29 4 424.0 293.260009765625 0.010913519188761711 0.5 0.05657234415411949
1 43 91 29 5 424.0 287.5299987792969 0.010913519188761711 0.5 0.05657234415411949
1 44 90 29 6 362.0 285.3399963378906 0.010913519188761711 0.5 0.05657234415411949
1 44 89 29 7 300.0 279.8599853515625 0.010913519188761711 0.5 0.05657234415411949
1 44 88 29 8 300.0 276.1199951171875 0.010913519188761711 0.5 0.05657234415411949
1 44 87 29 9 300.0 273.2300109863281 0.010913519188761711 0.5 0.05657234415411949
1 43 42 30 1 424.0 292.3399963378906 0.021810926496982574 0.5 0.0022097949404269457
1 44 43 30 2 424.0 281.2300109863281 0.021810926496982574 0.5 0.0022097949404269457
1 45 44 30 3 424.0 262.8299865722656 0.021810926496982574 0.5 0.0022097949404269457
1 46 45 30 4 362.0 249.44000244140625 0.021810926496982574 0.5 0.0022097949404269457
1 47 45 30 5 362.0 240.47000122070312 0.021810926496982574 0.5 0.0022097949404269457
1 48 46 30 6 362.0 234.44000244140625 0.021810926496982574 0.5 0.0022097949404269457
1 49 46 30 7 300.0 230.02000427246094 0.021810926496982574 0.5 0.0022097949404269457
1 50 46 30 8 300.0 226.64999389648438 0.021810926496982574 0.5 0.0022097949404269457
1 51 46 30 9 300.0 221.27999877929688 0.021810926496982574 0.5 0.0022097949404269457
1 44 86 31 1 512.0 268.2953186035156 0.0012825476005673409 0.5 0.05657234415411949
1 45 85 31 2 362.0 266.25531005859375 0.0012825476005673409 0.5 0.05657234415411949
1 46 85 31 3 300.0 266.1953125 0.0012825476005673409 0.5 0.05657234415411949
1 47 85 31 4 300.0 266.185302734375 0.0012825476005673409 0.5 0.05657234415411949
1 48 85 31 5 300.0 266.1053161621094 0.0012825476005673409 0.5 0.05657234415411949
1 49 85 31 6 300.0 265.63531494140625 0.0012825476005673409 0.5 0.05657234415411949
1 51 19 32 1 424.0 450.45001220703125 0.04348546639084816 0.5 0.0022097949404269457
1 50 20 32 2 424.0 441.07000732421875 0.04348546639084816 0.5 0.0022097949404269457
1 49 21 32 3 362.0 429.67999267578125 0.04348546639084816 0.5 0.0022097949404269457
1 49 22 32 4 300.0 422.82000732421875 0.04348546639084816 0.5 0.0022097949404269457
1 49 23 32 5 362.0 415.1199951171875 0.04348546639084816 0.5 0.0022097949404269457
1 48 24 32 6 424.0 405.04998779296875 0.04348546639084816 0.5 0.0022097949404269457
1 47 25 32 7 362.0 350.3699951171875 0.04348546639084816 0.5 0.0022097949404269457
1 46 25 32 8 300.0 321.82000732421875 0.04348546639084816 0.5 0.0022097949404269457
1 46 26 33 1 512.0 314.5 0.015014988370239735 0.5 0.0022097949404269457
1 46 27 33 2 300.0 309.3900146484375 0.015014988370239735 0.5 0.0022097949404269457
1 46 28 33 3 300.0 303.95001220703125 0.015014988370239735 0.5 0.0022097949404269457
1 46 29 33 4 300.0 303.5199890136719 0.015014988370239735 0.5 0.0022097949404269457
1 46 30 33 5 362.0 302.55999755859375 0.015014988370239735 0.5 0.0022097949404269457
1 47 31 33 6 424.0 301.3299865722656 0.015014988370239735 0.5 0.0022097949404269457
1 48 32 33 7 362.0 298.95001220703125 0.015014988370239735 0.5 0.0022097949404269457
1 48 33 33 8 300.0 290.7200012207031 0.015014988370239735 0.5 0.0022097949404269457
1 48 34 33 9 362.0 285.20001220703125 0.015014988370239735 0.5 0.0022097949404269457
1 47 35 33 10 362.0 279.17999267578125 0.015014988370239735 0.5 0.0022097949404269457
1 47 36 33 11 300.0 277.4800109863281 0.015014988370239735 0.5 0.0022097949404269457
1 47 37 33 12 362.0 269.6700134277344 0.015014988370239735 0.5 0.0022097949404269457
1 46 38 33 13 424.0 244.3800048828125 0.015014988370239735 0.5 0.0022097949404269457
1 47 99 34 1 424.0 371.3900146484375 0.021549798548221588 0.5 0.05657234415411949
1 46 98 34 2 424.0 344.3500061035156 0.021549798548221588 0.5 0.05657234415411949
1 47 97 34 3 362.0 326.54998779296875 0.021549798548221588 0.5 0.05657234415411949
1 47 96 34 4 300.0 317.79998779296875 0.021549798548221588 0.5 0.05657234415411949
1 47 95 34 5 362.0 306.17999267578125 0.021549798548221588 0.5 0.05657234415411949
1 48 94 34 6 362.0 294.82000732421875 0.021549798548221588 0.5 0.05657234415411949
1 48 93 34 7 300.0 288.5400085449219 0.021549798548221588 0.5 0.05657234415411949
1 48 92 34 8 300.0 284.2900085449219 0.021549798548221588 0.5 0.05657234415411949
1 48 91 34 9 362.0 279.4599914550781 0.021549798548221588 0.5 0.05657234415411949
1 49 90 34 10 362.0 277.45001220703125 0.021549798548221588 0.5 0.05657234415411949
1 49 89 34 11 300.0 274.2900085449219 0.021549798548221588 0.5 0.05657234415411949
1 49 88 34 12 300.0 273.2200012207031 0.021549798548221588 0.5 0.05657234415411949
1 49 87 34 13 300.0 269.2200012207031 0.021549798548221588 0.5 0.05657234415411949
1 49 86 34 14 362.0 267.5199890136719 0.021549798548221588 0.5 0.05657234415411949
1 47 39 35 1 574.0 237.32000732421875 0.0041858176700770855 0.5 0.0022097949404269457
1 48 40 35 2 362.0 231.60000610351562 0.0041858176700770855 0.5 0.0022097949404269457
1 48 41 35 3 300.0 230.8300018310547 0.0041858176700770855 0.5 0.0022097949404269457
1 49 41 35 4 362.0 230.77000427246094 0.0041858176700770855 0.5 0.0022097949404269457
1 50 42 35 5 362.0 227.8000030517578 0.0041858176700770855 0.5 0.0022097949404269457
1 50 43 35 6 300.0 225.77999877929688 0.0041858176700770855 0.5 0.0022097949404269457
1 50 44 35 7 362.0 225.0399932861328 0.0041858176700770855 0.5 0.0022097949404269457
1 51 45 35 8 424.0 224.57000732421875 0.0041858176700770855 0.5 0.0022097949404269457
1 49 76 36 1 424.0 335.1099853515625 0.01993861049413681 0.5 0.05657234415411949
1 48 77 36 2 362.0 314.3800048828125 0.01993861049413681 0.5 0.05657234415411949
1 48 78 36 3 300.0 305.010009765625 0.01993861049413681 0.5 0.05657234415411949
1 48 79 36 4 362.0 300.7900085449219 0.01993861049413681 0.5 0.05657234415411949
1 47 80 36 5 362.0 290.010009765625 0.01993861049413681 0.5 0.05657234415411949
1 47 81 36 6 300.0 283.3500061035156 0.01993861049413681 0.5 0.05657234415411949
1 47 82 36 7 362.0 280.5299987792969 0.01993861049413681 0.5 0.05657234415411949
1 48 83 36 8 424.0 274.9200134277344 0.01993861049413681 0.5 0.05657234415411949
1 49 84 36 9 362.0 270.1499938964844 0.01993861049413681 0.5 0.05657234415411949
1 49 60 37 1 300.0 247.9600067138672 0.015151935629546642 0.5 0.0022097949404269457
1 49 59 37 2 362.0 243.80999755859375 0.015151935629546642 0.5 0.0022097949404269457
1 50 58 37 3 362.0 236.52999877929688 0.015151935629546642 0.5 0.0022097949404269457
1 50 57 37 4 362.0 230.49000549316406 0.015151935629546642 0.5 0.0022097949404269457
1 51 56 37 5 424.0 225.1300048828125 0.015151935629546642 0.5 0.0022097949404269457
1 52 55 37 6 362.0 215.0500030517578 0.015151935629546642 0.5 0.0022097949404269457
1 50 84 38 1 512.0 262.4623107910156 9.999999747378752e-05 0.5 0.05657234415411949
1 50 85 39 1 512.0 263.1632080078125 9.999999747378752e-05 0.5 0.05657234415411949
1 51 31 40 1 300.0 328.0 0.022531114518642426 0.5 0.0022097949404269457
1 51 32 40 2 300.0 320.8999938964844 0.022531114518642426 0.5 0.0022097949404269457
1 51 33 40 3 300.0 309.30999755859375 0.022531114518642426 0.5 0.0022097949404269457
1 51 34 40 4 300.0 299.4800109863281 0.022531114518642426 0.5 0.0022097949404269457
1 51 35 40 5 362.0 291.45001220703125 0.022531114518642426 0.5 0.0022097949404269457
1 52 36 40 6 424.0 281.7900085449219 0.022531114518642426 0.5 0.0022097949404269457
1 53 37 40 7 424.0 273.70001220703125 0.022531114518642426 0.5 0.0022097949404269457
1 51 83 41 1 512.0 264.38409423828125 0.004867480136454105 0.5 0.05657234415411949
1 52 83 41 2 362.0 264.38409423828125 0.004867480136454105 0.5 0.05657234415411949
1 53 82 41 3 424.0 259.12408447265625 0.004867480136454105 0.5 0.05657234415411949
1 54 81 41 4 362.0 256.3040771484375 0.004867480136454105 0.5 0.05657234415411949
1 54 95 42 1 512.0 291.5 0.006181467790156603 0.5 0.05657234415411949
1 53 94 42 2 362.0 288.44000244140625 0.006181467790156603 0.5 0.05657234415411949
1 53 93 42 3 362.0 285.760009765625 0.006181467790156603 0.5 0.05657234415411949
1 52 92 42 4 362.0 282.6400146484375 0.006181467790156603 0.5 0.05657234415411949
1 52 91 42 5 362.0 280.2200012207031 0.006181467790156603 0.5 0.05657234415411949
1 51 90 42 6 362.0 276.489990234375 0.006181467790156603 0.5 0.05657234415411949
1 51 89 42 7 300.0 274.82000732421875 0.006181467790156603 0.5 0.05657234415411949
1 51 88 42 8 300.0 273.0799865722656 0.006181467790156603 0.5 0.05657234415411949
1 51 87 42 9 300.0 269.4800109863281 0.006181467790156603 0.5 0.05657234415411949
1 51 86 42 10 300.0 267.8299865722656 0.006181467790156603 0.5 0.05657234415411949
1 51 85 42 11 300.0 266.57000732421875 0.006181467790156603 0.5 0.05657234415411949
1 51 84 42 12 300.0 266.0199890136719 0.006181467790156603 0.5 0.05657234415411949
1 52 46 43 1 574.0 219.1999969482422 0.002969383727759123 0.5 0.0022097949404269457
1 53 47 43 2 424.0 217.3300018310547 0.002969383727759123 0.5 0.0022097949404269457