# GHB package for  MODFLOW-NWT, generated by Flopy.
       315        55
       315         0 # stress period 1
         3       300       171          191.91         40000.0
         2       301       171       84.049995         40000.0
         3       301       171       84.049995         40000.0
         2       302       172       55.154266         40000.0
         3       302       172       55.154266         40000.0
         2       303       171        54.43017         40000.0
         3       303       171        54.43017         40000.0
         3       304       170       87.889915         40000.0
         3       305       170        87.37661         40000.0
         3       306       169        70.68078         40000.0
         3       307       169       66.973885         40000.0
         3       308       168       52.750534         40000.0
         3       309       168        52.82777         40000.0
         3       310       167        44.40035         40000.0
         3       310       166       42.190712         40000.0
         3       311       165       39.980236         40000.0
         3       312       161       34.451763         40000.0
         3       312       162       38.376507         40000.0
         3       312       163       39.827007         40000.0
         3       312       164         39.5102         40000.0
         3       313       160       27.260145         40000.0
         3       314       160        29.66381         40000.0
         3       315       160       29.755493         40000.0
         3       316       160       30.019175         40000.0
         3       317       160       30.059702         40000.0
         3       318       160        31.80302         40000.0
         3       319       160       32.719162         40000.0
         1       320       159       21.648703         40000.0
         2       320       159       21.648703         40000.0
         3       320       159       21.648703         40000.0
         1       321       159       21.616602         40000.0
         2       321       159       21.616602         40000.0
         3       321       159       21.616602         40000.0
         3       322       159       25.273975         40000.0
         3       323       159       27.399048         40000.0
         3       324       159       28.125444         40000.0
         1       325       158        21.03232         40000.0
         2       325       158        21.03232         40000.0
         3       325       158        21.03232         40000.0
         3       326       159        26.88716         40000.0
         3       327       158       21.000317         40000.0
         1       328       157       21.032095         40000.0
         2       328       157       21.032095         40000.0
         3       328       157       21.032095         40000.0
         1       329       157       21.167154         40000.0
         2       329       157       21.167154         40000.0
         3       329       157       21.167154         40000.0
         1       330       157       21.375366         40000.0
         2       330       157       21.375366         40000.0
         3       330       157       21.375366         40000.0
         2       331       156       23.674923         40000.0
         3       331       156       23.674923         40000.0
         2       332       156       25.670624         40000.0
         3       332       156       25.670624         40000.0
         2       333       152       54.851128         40000.0
         3       333       152       54.851128         40000.0
         2       333       153       42.803215         40000.0
         3       333       153       42.803215         40000.0
         2       333       154            34.3         40000.0
         3       333       154            34.3         40000.0
         2       333       155       35.792374         40000.0
         3       333       155       35.792374         40000.0
         2       334       150        52.87482         40000.0
         3       334       150        52.87482         40000.0
         2       334       151        64.61871         40000.0
         3       334       151        64.61871         40000.0
         1       335       149       14.028956         40000.0
         2       335       149       14.028956         40000.0
         3       335       149       14.028956         40000.0
         1       336       148        5.216931         40000.0
         2       336       148        5.216931         40000.0
         3       336       148        5.216931         40000.0
         1       337       146       5.2229304         40000.0
         2       337       146       5.2229304         40000.0
         3       337       146       5.2229304         40000.0
         1       337       147       1.8517231         40000.0
         2       337       147       1.8517231         40000.0
         3       337       147       1.8517231         40000.0
         3       338       145       15.667708         40000.0
         3       339       145       23.660355         40000.0
         2       340       145       42.682526         40000.0
         3       340       145       42.682526         40000.0
         2       341       146       46.914017         40000.0
         3       341       146       46.914017         40000.0
         3       341       147        56.64553         40000.0
         3       341       148       64.322525         40000.0
         3       341       149       62.967457         40000.0
         3       341       150       62.461597         40000.0
         2       342       151        60.99743         40000.0
         3       342       151        60.99743         40000.0
         2       343       151       56.680367         40000.0
         3       343       151       56.680367         40000.0
         2       344       152       54.087017         40000.0
         3       344       152       54.087017         40000.0
         2       345       152       51.959854         40000.0
         3       345       152       51.959854         40000.0
         2       346       152       50.096355         40000.0
         3       346       152       50.096355         40000.0
         2       347       153       48.385876         40000.0
         3       347       153       48.385876         40000.0
         2       348       154       47.462128         40000.0
         3       348       154       47.462128         40000.0
         2       349       154       46.551796         40000.0
         3       349       154       46.551796         40000.0
         2       350       154       45.260456         40000.0
         3       350       154       45.260456         40000.0
         2       351       154       43.906982         40000.0
         3       351       154       43.906982         40000.0
         2       352       154        42.72683         40000.0
         3       352       154        42.72683         40000.0
         2       353       154       41.899612         40000.0
         3       353       154       41.899612         40000.0
         2       354       154        41.44635         40000.0
         3       354       154        41.44635         40000.0
         3       355       155        48.54984         40000.0
         3       356       155       44.689648         40000.0
         2       357       155       39.151806         40000.0
         3       357       155       39.151806         40000.0
         2       358       155        39.26715         40000.0
         3       358       155        39.26715         40000.0
         2       359       155       39.736313         40000.0
         3       359       155       39.736313         40000.0
         2       360       155       41.115906         40000.0
         3       360       155       41.115906         40000.0
         2       361       156       47.562057         40000.0
         3       361       156       47.562057         40000.0
         2       361       157         45.3196         40000.0
         3       361       157         45.3196         40000.0
         2       362       158        43.71386         40000.0
         3       362       158        43.71386         40000.0
         2       363       159       42.939316         40000.0
         3       363       159       42.939316         40000.0
         2       364       160        42.99341         40000.0
         3       364       160        42.99341         40000.0
         2       365       160       43.407967         40000.0
         3       365       160       43.407967         40000.0
         3       366       160       45.492744         40000.0
         2       367       160        44.14012         40000.0
         3       367       160        44.14012         40000.0
         2       368       160       43.950935         40000.0
         3       368       160       43.950935         40000.0
         2       369       160        43.60556         40000.0
         3       369       160        43.60556         40000.0
         2       370       160       43.976997         40000.0
         3       370       160       43.976997         40000.0
         2       371       160        44.35347         40000.0
         3       371       160        44.35347         40000.0
         2       372       160       44.840218         40000.0
         3       372       160       44.840218         40000.0
         3       373       161       51.772408         40000.0
         3       374       161        52.48389         40000.0
         2       375       161        50.70329         40000.0
         3       375       161        50.70329         40000.0
         2       376       161        51.69178         40000.0
         3       376       161        51.69178         40000.0
         2       377       161       53.500126         40000.0
         3       377       161       53.500126         40000.0
         2       378       161       56.771782         40000.0
         3       378       161       56.771782         40000.0
         2       379       162       63.779617         40000.0
         3       379       162       63.779617         40000.0
         2       380       163       65.165695         40000.0
         3       380       163       65.165695         40000.0
         3       381       163        73.40545         40000.0
         3       382       163        75.83076         40000.0
         2       383       163        75.20605         40000.0
         3       383       163        75.20605         40000.0
         2       384       163        76.38721         40000.0
         3       384       163        76.38721         40000.0
         2       376       143       105.30157         40000.0
         3       376       143       105.30157         40000.0
         2       377       144        96.41767         40000.0
         3       377       144        96.41767         40000.0
         2       378       144        92.86228         40000.0
         3       378       144        92.86228         40000.0
         2       379       144       94.968925         40000.0
         3       379       144       94.968925         40000.0
         2       380       144        96.22796         40000.0
         3       380       144        96.22796         40000.0
         2       381       144        99.71445         40000.0
         3       381       144        99.71445         40000.0
         2       382       144       102.68506         40000.0
         3       382       144       102.68506         40000.0
         2       383       144      104.851456         40000.0
         3       383       144      104.851456         40000.0
         2       384       145       107.87424         40000.0
         3       384       145       107.87424         40000.0
         2       384       146      107.318756         40000.0
         3       384       146      107.318756         40000.0
         2       385       147      110.092865         40000.0
         3       385       147      110.092865         40000.0
         2       385       148       109.79108         40000.0
         3       385       148       109.79108         40000.0
         2       385       149       109.80109         40000.0
         3       385       149       109.80109         40000.0
         2       385       161        78.18061         40000.0
         3       385       161        78.18061         40000.0
         2       385       162       77.560425         40000.0
         3       385       162       77.560425         40000.0
         2       386       150       142.89328         40000.0
         3       386       150       142.89328         40000.0
         2       386       160       108.70116         40000.0
         3       386       160       108.70116         40000.0
         2       387       151       170.54497         40000.0
         3       387       151       170.54497         40000.0
         2       387       159       120.82152         40000.0
         3       387       159       120.82152         40000.0
         3       388       152        148.8693         40000.0
         2       388       159          156.73         40000.0
         3       388       159          156.73         40000.0
         3       389       152       164.07968         40000.0
         3       389       159       150.96535         40000.0
         3       390       152       186.10922         40000.0
         2       390       158       157.75775         40000.0
         3       390       158       157.75775         40000.0
         3       391       153       211.38635         40000.0
         2       391       158          180.57         40000.0
         3       391       158          180.57         40000.0
         3       392       154       214.26906         40000.0
         3       392       155        209.3937         40000.0
         2       392       156          225.97         40000.0
         3       392       156          225.97         40000.0
         2       392       157       169.66315         40000.0
         3       392       157       169.66315         40000.0
         3       362       118          312.91         40000.0
         3       363       115       307.07587         40000.0
         3       363       116        301.1123         40000.0
         3       363       117       320.51944         40000.0
         3       363       119       325.91376         40000.0
         3       364        89        196.0678         40000.0
         3       364        90        212.0904         40000.0
         3       364        91       208.21063         40000.0
         3       364       114       233.89812         40000.0
         3       364       120       311.11136         40000.0
         3       364       121        296.5793         40000.0
         3       365        92        198.0922         40000.0
         3       365       114       232.45442         40000.0
         3       365       122       261.80017         40000.0
         3       366        92       230.61319         40000.0
         3       366       114         240.918         40000.0
         3       366       122       278.43356         40000.0
         3       367        93       231.94785         40000.0
         3       367        94       243.66212         40000.0
         3       367        95       256.43002         40000.0
         3       367        96       213.67117         40000.0
         3       367        98       228.27994         40000.0
         3       367        99        191.6044         40000.0
         3       367       100       129.80621         40000.0
         3       367       113          253.09         40000.0
         3       367       123        269.6005         40000.0
         3       367       124       256.62622         40000.0
         3       367       125       247.94739         40000.0
         3       368        97       264.99567         40000.0
         3       368       101       188.15013         40000.0
         3       368       112       195.02544         40000.0
         3       368       126       230.06334         40000.0
         3       368       127          192.54         40000.0
         3       368       132        181.0696         40000.0
         2       368       133       248.82999         40000.0
         3       368       133       248.82999         40000.0
         3       369       102           235.8         40000.0
         3       369       111          200.03         40000.0
         3       369       128       184.68207         40000.0
         3       369       129       155.66579         40000.0
         3       369       131          190.28         40000.0
         2       369       134          233.42         40000.0
         3       369       134          233.42         40000.0
         2       369       135       210.28659         40000.0
         3       369       135       210.28659         40000.0
         3       370       103       264.66656         40000.0
         3       370       104       250.81548         40000.0
         3       370       108        238.7397         40000.0
         3       370       110       182.05475         40000.0
         3       370       130       167.30989         40000.0
         2       370       136          227.57         40000.0
         3       370       136          227.57         40000.0
         3       371       105       283.99033         40000.0
         3       371       106       282.65268         40000.0
         3       371       107       284.25995         40000.0
         3       371       109       250.82999         40000.0
         2       371       137       126.30417         40000.0
         3       371       137       126.30417         40000.0
         2       371       138       124.68086         40000.0
         3       371       138       124.68086         40000.0
         2       372       139       121.13054         40000.0
         3       372       139       121.13054         40000.0
         2       373       139       121.34215         40000.0
         3       373       139       121.34215         40000.0
         2       374       140       118.76962         40000.0
         3       374       140       118.76962         40000.0
         2       375       141       114.89064         40000.0
         3       375       141       114.89064         40000.0
         2       376       142       116.06464         40000.0
         3       376       142       116.06464         40000.0
         1       356        79       17.259998         40000.0
         2       356        79       17.259998         40000.0
         3       356        79       17.259998         40000.0
         1       357        80           44.98         40000.0
         2       357        80           44.98         40000.0
         3       357        80           44.98         40000.0
         1       358        81       26.880001         40000.0
         2       358        81       26.880001         40000.0
         3       358        81       26.880001         40000.0
         1       359        81           44.54         40000.0
         2       359        81           44.54         40000.0
         3       359        81           44.54         40000.0
         1       360        82           38.79         40000.0
         2       360        82           38.79         40000.0
         3       360        82           38.79         40000.0
         3       361        83       34.282036         40000.0
         3       361        84        37.01915         40000.0
         3       362        85        61.90696         40000.0
         3       363        86       104.15581         40000.0
         3       363        87       126.56546         40000.0
         3       363        88       139.40456         40000.0
        -1         0 # stress period 2
        -1         0 # stress period 3
        -1         0 # stress period 4
        -1         0 # stress period 5
        -1         0 # stress period 6
        -1         0 # stress period 7
        -1         0 # stress period 8
        -1         0 # stress period 9
        -1         0 # stress period 10
        -1         0 # stress period 11
        -1         0 # stress period 12
        -1         0 # stress period 13
        -1         0 # stress period 14
        -1         0 # stress period 15
        -1         0 # stress period 16
        -1         0 # stress period 17
        -1         0 # stress period 18
        -1         0 # stress period 19
        -1         0 # stress period 20
        -1         0 # stress period 21
        -1         0 # stress period 22
        -1         0 # stress period 23
        -1         0 # stress period 24
        -1         0 # stress period 25
        -1         0 # stress period 26
        -1         0 # stress period 27
        -1         0 # stress period 28
        -1         0 # stress period 29
        -1         0 # stress period 30
        -1         0 # stress period 31
        -1         0 # stress period 32
        -1         0 # stress period 33
        -1         0 # stress period 34
        -1         0 # stress period 35
        -1         0 # stress period 36
        -1         0 # stress period 37
        -1         0 # stress period 38
        -1         0 # stress period 39
        -1         0 # stress period 40
        -1         0 # stress period 41
        -1         0 # stress period 42
        -1         0 # stress period 43
        -1         0 # stress period 44
        -1         0 # stress period 45
        -1         0 # stress period 46
        -1         0 # stress period 47
        -1         0 # stress period 48
        -1         0 # stress period 49
        -1         0 # stress period 50
        -1         0 # stress period 51
        -1         0 # stress period 52
        -1         0 # stress period 53
        -1         0 # stress period 54
        -1         0 # stress period 55
        -1         0 # stress period 56
        -1         0 # stress period 57
        -1         0 # stress period 58
        -1         0 # stress period 59
        -1         0 # stress period 60
        -1         0 # stress period 61
        -1         0 # stress period 62
        -1         0 # stress period 63
        -1         0 # stress period 64
        -1         0 # stress period 65
        -1         0 # stress period 66
        -1         0 # stress period 67
        -1         0 # stress period 68
        -1         0 # stress period 69
        -1         0 # stress period 70
        -1         0 # stress period 71
        -1         0 # stress period 72
        -1         0 # stress period 73
        -1         0 # stress period 74
        -1         0 # stress period 75
        -1         0 # stress period 76
        -1         0 # stress period 77
        -1         0 # stress period 78
        -1         0 # stress period 79
        -1         0 # stress period 80
        -1         0 # stress period 81
        -1         0 # stress period 82
        -1         0 # stress period 83
        -1         0 # stress period 84
        -1         0 # stress period 85
        -1         0 # stress period 86
        -1         0 # stress period 87
        -1         0 # stress period 88
        -1         0 # stress period 89
        -1         0 # stress period 90
        -1         0 # stress period 91
        -1         0 # stress period 92
        -1         0 # stress period 93
        -1         0 # stress period 94
        -1         0 # stress period 95
        -1         0 # stress period 96
        -1         0 # stress period 97
        -1         0 # stress period 98
        -1         0 # stress period 99
        -1         0 # stress period 100
        -1         0 # stress period 101
        -1         0 # stress period 102
        -1         0 # stress period 103
        -1         0 # stress period 104
        -1         0 # stress period 105
        -1         0 # stress period 106
        -1         0 # stress period 107
        -1         0 # stress period 108
        -1         0 # stress period 109
        -1         0 # stress period 110
        -1         0 # stress period 111
        -1         0 # stress period 112
        -1         0 # stress period 113
        -1         0 # stress period 114
        -1         0 # stress period 115
        -1         0 # stress period 116
        -1         0 # stress period 117
        -1         0 # stress period 118
        -1         0 # stress period 119
        -1         0 # stress period 120
        -1         0 # stress period 121
        -1         0 # stress period 122
        -1         0 # stress period 123
        -1         0 # stress period 124
        -1         0 # stress period 125
        -1         0 # stress period 126
        -1         0 # stress period 127
        -1         0 # stress period 128
        -1         0 # stress period 129
        -1         0 # stress period 130
        -1         0 # stress period 131
        -1         0 # stress period 132
        -1         0 # stress period 133
        -1         0 # stress period 134
        -1         0 # stress period 135
        -1         0 # stress period 136
        -1         0 # stress period 137
        -1         0 # stress period 138
        -1         0 # stress period 139
        -1         0 # stress period 140
        -1         0 # stress period 141
        -1         0 # stress period 142
        -1         0 # stress period 143
        -1         0 # stress period 144
        -1         0 # stress period 145
        -1         0 # stress period 146
        -1         0 # stress period 147
        -1         0 # stress period 148
        -1         0 # stress period 149
        -1         0 # stress period 150
        -1         0 # stress period 151
        -1         0 # stress period 152
        -1         0 # stress period 153
        -1         0 # stress period 154
        -1         0 # stress period 155
        -1         0 # stress period 156
        -1         0 # stress period 157
        -1         0 # stress period 158
        -1         0 # stress period 159
        -1         0 # stress period 160
        -1         0 # stress period 161
        -1         0 # stress period 162
        -1         0 # stress period 163
        -1         0 # stress period 164
        -1         0 # stress period 165
        -1         0 # stress period 166
        -1         0 # stress period 167
        -1         0 # stress period 168
        -1         0 # stress period 169
        -1         0 # stress period 170
        -1         0 # stress period 171
        -1         0 # stress period 172
        -1         0 # stress period 173
        -1         0 # stress period 174
        -1         0 # stress period 175
        -1         0 # stress period 176
        -1         0 # stress period 177
        -1         0 # stress period 178
        -1         0 # stress period 179
        -1         0 # stress period 180
        -1         0 # stress period 181
        -1         0 # stress period 182
        -1         0 # stress period 183
        -1         0 # stress period 184
        -1         0 # stress period 185
        -1         0 # stress period 186
        -1         0 # stress period 187
        -1         0 # stress period 188
        -1         0 # stress period 189
        -1         0 # stress period 190
        -1         0 # stress period 191
        -1         0 # stress period 192
        -1         0 # stress period 193
        -1         0 # stress period 194
        -1         0 # stress period 195
        -1         0 # stress period 196
        -1         0 # stress period 197
        -1         0 # stress period 198
        -1         0 # stress period 199
        -1         0 # stress period 200
        -1         0 # stress period 201
        -1         0 # stress period 202
        -1         0 # stress period 203
        -1         0 # stress period 204
        -1         0 # stress period 205
        -1         0 # stress period 206
        -1         0 # stress period 207
        -1         0 # stress period 208
        -1         0 # stress period 209
        -1         0 # stress period 210
        -1         0 # stress period 211
        -1         0 # stress period 212
        -1         0 # stress period 213
        -1         0 # stress period 214
        -1         0 # stress period 215
        -1         0 # stress period 216
        -1         0 # stress period 217
        -1         0 # stress period 218
        -1         0 # stress period 219
        -1         0 # stress period 220
        -1         0 # stress period 221
        -1         0 # stress period 222
        -1         0 # stress period 223
        -1         0 # stress period 224
        -1         0 # stress period 225
        -1         0 # stress period 226
        -1         0 # stress period 227
        -1         0 # stress period 228
        -1         0 # stress period 229
        -1         0 # stress period 230
        -1         0 # stress period 231
        -1         0 # stress period 232
        -1         0 # stress period 233
        -1         0 # stress period 234
        -1         0 # stress period 235
        -1         0 # stress period 236
        -1         0 # stress period 237
        -1         0 # stress period 238
        -1         0 # stress period 239
        -1         0 # stress period 240
        -1         0 # stress period 241
        -1         0 # stress period 242
        -1         0 # stress period 243
        -1         0 # stress period 244
        -1         0 # stress period 245
        -1         0 # stress period 246
        -1         0 # stress period 247
        -1         0 # stress period 248