pcf
* control data
restart estimation 
252 4259 1 0 1 
1 1 single point 1 0 0 
10.0 -3.0 0.3 0.03 10 
10.0 10.0 0.001 
0.1 
20 0.005 3 3 0.005 3 
1 1 1 
* parameter groups
K relative 0.01 0.0 switch 2.0 parabolic 
* parameter data
radj_fc0 none factor 1.0 0.1 2.0 K 1.0 0.0 1 
radj_fc1 none factor 1.0 0.1 2.0 K 1.0 0.0 1 
radj_fc2 none factor 1.0 0.1 2.0 K 1.0 0.0 1 
radj_fc3 none factor 1.0 0.1 2.0 K 1.0 0.0 1 
radj_fc4 none factor 1.0 0.1 2.0 K 1.0 0.0 1 
radj_fc5 none factor 1.0 0.1 2.0 K 1.0 0.0 1 
radj_fc6 none factor 1.0 0.1 2.0 K 1.0 0.0 1 
radj_fc7 none factor 1.0 0.1 2.0 K 1.0 0.0 1 
radj_fc8 none factor 1.0 0.1 2.0 K 1.0 0.0 1 
radj_fc9 none factor 1.0 0.1 2.0 K 1.0 0.0 1 
radj_fc10 none factor 1.0 0.1 2.0 K 1.0 0.0 1 
radj_fc11 none factor 1.0 0.1 2.0 K 1.0 0.0 1 
radj_fc12 none factor 1.0 0.1 2.0 K 1.0 0.0 1 
radj_fc13 none factor 1.0 0.1 2.0 K 1.0 0.0 1 
radj_fc14 none factor 1.0 0.1 2.0 K 1.0 0.0 1 
radj_fc15 none factor 1.0 0.1 2.0 K 1.0 0.0 1 
radj_fc16 none factor 1.0 0.1 2.0 K 1.0 0.0 1 
radj_fc17 none factor 1.0 0.1 2.0 K 1.0 0.0 1 
radj_fc18 none factor 1.0 0.1 2.0 K 1.0 0.0 1 
radj_fc19 none factor 1.0 0.1 2.0 K 1.0 0.0 1 
radj_fc20 none factor 1.0 0.1 2.0 K 1.0 0.0 1 
radj_fc21 none factor 1.0 0.1 2.0 K 1.0 0.0 1 
radj_fc22 none factor 1.0 0.1 2.0 K 1.0 0.0 1 
radj_fc23 none factor 1.0 0.1 2.0 K 1.0 0.0 1 
radj_fc24 none factor 1.0 0.1 2.0 K 1.0 0.0 1 
radj_fc25 none factor 1.0 0.1 2.0 K 1.0 0.0 1 
radj_fc26 none factor 1.0 0.1 2.0 K 1.0 0.0 1 
radj_fc27 none factor 1.0 0.1 2.0 K 1.0 0.0 1 
radj_fc28 none factor 1.0 0.1 2.0 K 1.0 0.0 1 
radj_fc29 none factor 1.0 0.1 2.0 K 1.0 0.0 1 
radj_fc30 none factor 1.0 0.1 2.0 K 1.0 0.0 1 
radj_fc31 none factor 1.0 0.1 2.0 K 1.0 0.0 1 
radj_fc32 none factor 1.0 0.1 2.0 K 1.0 0.0 1 
radj_fc33 none factor 1.0 0.1 2.0 K 1.0 0.0 1 
radj_fc34 none factor 1.0 0.1 2.0 K 1.0 0.0 1 
radj_fc35 none factor 1.0 0.1 2.0 K 1.0 0.0 1 
radj_fc36 none factor 1.0 0.1 2.0 K 1.0 0.0 1 
radj_fc37 none factor 1.0 0.1 2.0 K 1.0 0.0 1 
radj_fc38 none factor 1.0 0.1 2.0 K 1.0 0.0 1 
radj_fc39 none factor 1.0 0.1 2.0 K 1.0 0.0 1 
radj_fc40 none factor 1.0 0.1 2.0 K 1.0 0.0 1 
radj_fc41 none factor 1.0 0.1 2.0 K 1.0 0.0 1 
radj_fc42 none factor 1.0 0.1 2.0 K 1.0 0.0 1 
radj_fc43 none factor 1.0 0.1 2.0 K 1.0 0.0 1 
radj_fc44 none factor 1.0 0.1 2.0 K 1.0 0.0 1 
radj_fc45 none factor 1.0 0.1 2.0 K 1.0 0.0 1 
radj_fc46 none factor 1.0 0.1 2.0 K 1.0 0.0 1 
radj_fc47 none factor 1.0 0.1 2.0 K 1.0 0.0 1 
radj_fc48 none factor 1.0 0.1 2.0 K 1.0 0.0 1 
radj_fc49 none factor 1.0 0.1 2.0 K 1.0 0.0 1 
radj_fc50 none factor 1.0 0.1 2.0 K 1.0 0.0 1 
radj_fc51 none factor 1.0 0.1 2.0 K 1.0 0.0 1 
radj_fc52 none factor 1.0 0.1 2.0 K 1.0 0.0 1 
radj_fc53 none factor 1.0 0.1 2.0 K 1.0 0.0 1 
radj_fc54 none factor 1.0 0.1 2.0 K 1.0 0.0 1 
radj_fc55 none factor 1.0 0.1 2.0 K 1.0 0.0 1 
radj_fc56 none factor 1.0 0.1 2.0 K 1.0 0.0 1 
radj_fc57 none factor 1.0 0.1 2.0 K 1.0 0.0 1 
radj_fc58 none factor 1.0 0.1 2.0 K 1.0 0.0 1 
radj_fc59 none factor 1.0 0.1 2.0 K 1.0 0.0 1 
radj_fc60 none factor 1.0 0.1 2.0 K 1.0 0.0 1 
radj_fc61 none factor 1.0 0.1 2.0 K 1.0 0.0 1 
radj_fc62 none factor 1.0 0.1 2.0 K 1.0 0.0 1 
radj_fc63 none factor 1.0 0.1 2.0 K 1.0 0.0 1 
radj_fc64 none factor 1.0 0.1 2.0 K 1.0 0.0 1 
radj_fc65 none factor 1.0 0.1 2.0 K 1.0 0.0 1 
radj_fc66 none factor 1.0 0.1 2.0 K 1.0 0.0 1 
radj_fc67 none factor 1.0 0.1 2.0 K 1.0 0.0 1 
radj_fc68 none factor 1.0 0.1 2.0 K 1.0 0.0 1 
radj_fc69 none factor 1.0 0.1 2.0 K 1.0 0.0 1 
radj_fc70 none factor 1.0 0.1 2.0 K 1.0 0.0 1 
radj_fc71 none factor 1.0 0.1 2.0 K 1.0 0.0 1 
radj_fc72 none factor 1.0 0.1 2.0 K 1.0 0.0 1 
radj_fc73 none factor 1.0 0.1 2.0 K 1.0 0.0 1 
radj_fc74 none factor 1.0 0.1 2.0 K 1.0 0.0 1 
radj_fc75 none factor 1.0 0.1 2.0 K 1.0 0.0 1 
radj_fc76 none factor 1.0 0.1 2.0 K 1.0 0.0 1 
radj_fc77 none factor 1.0 0.1 2.0 K 1.0 0.0 1 
radj_fc78 none factor 1.0 0.1 2.0 K 1.0 0.0 1 
radj_fc79 none factor 1.0 0.1 2.0 K 1.0 0.0 1 
radj_fc80 none factor 1.0 0.1 2.0 K 1.0 0.0 1 
radj_fc81 none factor 1.0 0.1 2.0 K 1.0 0.0 1 
radj_fc82 none factor 1.0 0.1 2.0 K 1.0 0.0 1 
radj_fc83 none factor 1.0 0.1 2.0 K 1.0 0.0 1 
radj_fc84 none factor 1.0 0.1 2.0 K 1.0 0.0 1 
radj_fc85 none factor 1.0 0.1 2.0 K 1.0 0.0 1 
radj_fc86 none factor 1.0 0.1 2.0 K 1.0 0.0 1 
radj_fc87 none factor 1.0 0.1 2.0 K 1.0 0.0 1 
radj_fc88 none factor 1.0 0.1 2.0 K 1.0 0.0 1 
radj_fc89 none factor 1.0 0.1 2.0 K 1.0 0.0 1 
radj_fc90 none factor 1.0 0.1 2.0 K 1.0 0.0 1 
radj_fc91 none factor 1.0 0.1 2.0 K 1.0 0.0 1 
radj_fc92 none factor 1.0 0.1 2.0 K 1.0 0.0 1 
radj_fc93 none factor 1.0 0.1 2.0 K 1.0 0.0 1 
radj_fc94 none factor 1.0 0.1 2.0 K 1.0 0.0 1 
radj_fc95 none factor 1.0 0.1 2.0 K 1.0 0.0 1 
radj_fc96 none factor 1.0 0.1 2.0 K 1.0 0.0 1 
radj_fc97 none factor 1.0 0.1 2.0 K 1.0 0.0 1 
radj_fc98 none factor 1.0 0.1 2.0 K 1.0 0.0 1 
radj_fc99 none factor 1.0 0.1 2.0 K 1.0 0.0 1 
radj_fc100 none factor 1.0 0.1 2.0 K 1.0 0.0 1 
radj_fc101 none factor 1.0 0.1 2.0 K 1.0 0.0 1 
radj_fc102 none factor 1.0 0.1 2.0 K 1.0 0.0 1 
radj_fc103 none factor 1.0 0.1 2.0 K 1.0 0.0 1 
radj_fc104 none factor 1.0 0.1 2.0 K 1.0 0.0 1 
radj_fc105 none factor 1.0 0.1 2.0 K 1.0 0.0 1 
radj_fc106 none factor 1.0 0.1 2.0 K 1.0 0.0 1 
radj_fc107 none factor 1.0 0.1 2.0 K 1.0 0.0 1 
radj_fc108 none factor 1.0 0.1 2.0 K 1.0 0.0 1 
radj_fc109 none factor 1.0 0.1 2.0 K 1.0 0.0 1 
radj_fc110 none factor 1.0 0.1 2.0 K 1.0 0.0 1 
radj_fc111 none factor 1.0 0.1 2.0 K 1.0 0.0 1 
radj_fc112 none factor 1.0 0.1 2.0 K 1.0 0.0 1 
radj_fc113 none factor 1.0 0.1 2.0 K 1.0 0.0 1 
radj_fc114 none factor 1.0 0.1 2.0 K 1.0 0.0 1 
radj_fc115 none factor 1.0 0.1 2.0 K 1.0 0.0 1 
radj_fc116 none factor 1.0 0.1 2.0 K 1.0 0.0 1 
radj_fc117 none factor 1.0 0.1 2.0 K 1.0 0.0 1 
radj_fc118 none factor 1.0 0.1 2.0 K 1.0 0.0 1 
radj_fc119 none factor 1.0 0.1 2.0 K 1.0 0.0 1 
radj_fc120 none factor 1.0 0.1 2.0 K 1.0 0.0 1 
radj_fc121 none factor 1.0 0.1 2.0 K 1.0 0.0 1 
radj_fc122 none factor 1.0 0.1 2.0 K 1.0 0.0 1 
radj_fc123 none factor 1.0 0.1 2.0 K 1.0 0.0 1 
radj_fc124 none factor 1.0 0.1 2.0 K 1.0 0.0 1 
radj_fc125 none factor 1.0 0.1 2.0 K 1.0 0.0 1 
radj_fc126 none factor 1.0 0.1 2.0 K 1.0 0.0 1 
radj_fc127 none factor 1.0 0.1 2.0 K 1.0 0.0 1 
radj_fc128 none factor 1.0 0.1 2.0 K 1.0 0.0 1 
radj_fc129 none factor 1.0 0.1 2.0 K 1.0 0.0 1 
radj_fc130 none factor 1.0 0.1 2.0 K 1.0 0.0 1 
radj_fc131 none factor 1.0 0.1 2.0 K 1.0 0.0 1 
radj_fc132 none factor 1.0 0.1 2.0 K 1.0 0.0 1 
radj_fc133 none factor 1.0 0.1 2.0 K 1.0 0.0 1 
radj_fc134 none factor 1.0 0.1 2.0 K 1.0 0.0 1 
radj_fc135 none factor 1.0 0.1 2.0 K 1.0 0.0 1 
radj_fc136 none factor 1.0 0.1 2.0 K 1.0 0.0 1 
radj_fc137 none factor 1.0 0.1 2.0 K 1.0 0.0 1 
radj_fc138 none factor 1.0 0.1 2.0 K 1.0 0.0 1 
radj_fc139 none factor 1.0 0.1 2.0 K 1.0 0.0 1 
radj_fc140 none factor 1.0 0.1 2.0 K 1.0 0.0 1 
radj_fc141 none factor 1.0 0.1 2.0 K 1.0 0.0 1 
radj_fc142 none factor 1.0 0.1 2.0 K 1.0 0.0 1 
radj_fc143 none factor 1.0 0.1 2.0 K 1.0 0.0 1 
radj_fc144 none factor 1.0 0.1 2.0 K 1.0 0.0 1 
radj_fc145 none factor 1.0 0.1 2.0 K 1.0 0.0 1 
radj_fc146 none factor 1.0 0.1 2.0 K 1.0 0.0 1 
radj_fc147 none factor 1.0 0.1 2.0 K 1.0 0.0 1 
radj_fc148 none factor 1.0 0.1 2.0 K 1.0 0.0 1 
radj_fc149 none factor 1.0 0.1 2.0 K 1.0 0.0 1 
radj_fc150 none factor 1.0 0.1 2.0 K 1.0 0.0 1 
radj_fc151 none factor 1.0 0.1 2.0 K 1.0 0.0 1 
radj_fc152 none factor 1.0 0.1 2.0 K 1.0 0.0 1 
radj_fc153 none factor 1.0 0.1 2.0 K 1.0 0.0 1 
radj_fc154 none factor 1.0 0.1 2.0 K 1.0 0.0 1 
radj_fc155 none factor 1.0 0.1 2.0 K 1.0 0.0 1 
radj_fc156 none factor 1.0 0.1 2.0 K 1.0 0.0 1 
radj_fc157 none factor 1.0 0.1 2.0 K 1.0 0.0 1 
radj_fc158 none factor 1.0 0.1 2.0 K 1.0 0.0 1 
radj_fc159 none factor 1.0 0.1 2.0 K 1.0 0.0 1 
radj_fc160 none factor 1.0 0.1 2.0 K 1.0 0.0 1 
radj_fc161 none factor 1.0 0.1 2.0 K 1.0 0.0 1 
radj_fc162 none factor 1.0 0.1 2.0 K 1.0 0.0 1 
radj_fc163 none factor 1.0 0.1 2.0 K 1.0 0.0 1 
radj_fc164 none factor 1.0 0.1 2.0 K 1.0 0.0 1 
radj_fc165 none factor 1.0 0.1 2.0 K 1.0 0.0 1 
radj_fc166 none factor 1.0 0.1 2.0 K 1.0 0.0 1 
radj_fc167 none factor 1.0 0.1 2.0 K 1.0 0.0 1 
radj_fc168 none factor 1.0 0.1 2.0 K 1.0 0.0 1 
radj_fc169 none factor 1.0 0.1 2.0 K 1.0 0.0 1 
radj_fc170 none factor 1.0 0.1 2.0 K 1.0 0.0 1 
radj_fc171 none factor 1.0 0.1 2.0 K 1.0 0.0 1 
radj_fc172 none factor 1.0 0.1 2.0 K 1.0 0.0 1 
radj_fc173 none factor 1.0 0.1 2.0 K 1.0 0.0 1 
radj_fc174 none factor 1.0 0.1 2.0 K 1.0 0.0 1 
radj_fc175 none factor 1.0 0.1 2.0 K 1.0 0.0 1 
radj_fc176 none factor 1.0 0.1 2.0 K 1.0 0.0 1 
radj_fc177 none factor 1.0 0.1 2.0 K 1.0 0.0 1 
radj_fc178 none factor 1.0 0.1 2.0 K 1.0 0.0 1 
radj_fc179 none factor 1.0 0.1 2.0 K 1.0 0.0 1 
radj_fc180 none factor 1.0 0.1 2.0 K 1.0 0.0 1 
radj_fc181 none factor 1.0 0.1 2.0 K 1.0 0.0 1 
radj_fc182 none factor 1.0 0.1 2.0 K 1.0 0.0 1 
radj_fc183 none factor 1.0 0.1 2.0 K 1.0 0.0 1 
radj_fc184 none factor 1.0 0.1 2.0 K 1.0 0.0 1 
radj_fc185 none factor 1.0 0.1 2.0 K 1.0 0.0 1 
radj_fc186 none factor 1.0 0.1 2.0 K 1.0 0.0 1 
radj_fc187 none factor 1.0 0.1 2.0 K 1.0 0.0 1 
radj_fc188 none factor 1.0 0.1 2.0 K 1.0 0.0 1 
radj_fc189 none factor 1.0 0.1 2.0 K 1.0 0.0 1 
radj_fc190 none factor 1.0 0.1 2.0 K 1.0 0.0 1 
radj_fc191 none factor 1.0 0.1 2.0 K 1.0 0.0 1 
radj_fc192 none factor 1.0 0.1 2.0 K 1.0 0.0 1 
radj_fc193 none factor 1.0 0.1 2.0 K 1.0 0.0 1 
radj_fc194 none factor 1.0 0.1 2.0 K 1.0 0.0 1 
radj_fc195 none factor 1.0 0.1 2.0 K 1.0 0.0 1 
radj_fc196 none factor 1.0 0.1 2.0 K 1.0 0.0 1 
radj_fc197 none factor 1.0 0.1 2.0 K 1.0 0.0 1 
radj_fc198 none factor 1.0 0.1 2.0 K 1.0 0.0 1 
radj_fc199 none factor 1.0 0.1 2.0 K 1.0 0.0 1 
radj_fc200 none factor 1.0 0.1 2.0 K 1.0 0.0 1 
radj_fc201 none factor 1.0 0.1 2.0 K 1.0 0.0 1 
radj_fc202 none factor 1.0 0.1 2.0 K 1.0 0.0 1 
radj_fc203 none factor 1.0 0.1 2.0 K 1.0 0.0 1 
radj_fc204 none factor 1.0 0.1 2.0 K 1.0 0.0 1 
radj_fc205 none factor 1.0 0.1 2.0 K 1.0 0.0 1 
radj_fc206 none factor 1.0 0.1 2.0 K 1.0 0.0 1 
radj_fc207 none factor 1.0 0.1 2.0 K 1.0 0.0 1 
radj_fc208 none factor 1.0 0.1 2.0 K 1.0 0.0 1 
radj_fc209 none factor 1.0 0.1 2.0 K 1.0 0.0 1 
radj_fc210 none factor 1.0 0.1 2.0 K 1.0 0.0 1 
radj_fc211 none factor 1.0 0.1 2.0 K 1.0 0.0 1 
radj_fc212 none factor 1.0 0.1 2.0 K 1.0 0.0 1 
radj_fc213 none factor 1.0 0.1 2.0 K 1.0 0.0 1 
radj_fc214 none factor 1.0 0.1 2.0 K 1.0 0.0 1 
radj_fc215 none factor 1.0 0.1 2.0 K 1.0 0.0 1 
radj_fc216 none factor 1.0 0.1 2.0 K 1.0 0.0 1 
radj_fc217 none factor 1.0 0.1 2.0 K 1.0 0.0 1 
radj_fc218 none factor 1.0 0.1 2.0 K 1.0 0.0 1 
radj_fc219 none factor 1.0 0.1 2.0 K 1.0 0.0 1 
radj_fc220 none factor 1.0 0.1 2.0 K 1.0 0.0 1 
radj_fc221 none factor 1.0 0.1 2.0 K 1.0 0.0 1 
radj_fc222 none factor 1.0 0.1 2.0 K 1.0 0.0 1 
radj_fc223 none factor 1.0 0.1 2.0 K 1.0 0.0 1 
radj_fc224 none factor 1.0 0.1 2.0 K 1.0 0.0 1 
radj_fc225 none factor 1.0 0.1 2.0 K 1.0 0.0 1 
radj_fc226 none factor 1.0 0.1 2.0 K 1.0 0.0 1 
radj_fc227 none factor 1.0 0.1 2.0 K 1.0 0.0 1 
radj_fc228 none factor 1.0 0.1 2.0 K 1.0 0.0 1 
radj_fc229 none factor 1.0 0.1 2.0 K 1.0 0.0 1 
radj_fc230 none factor 1.0 0.1 2.0 K 1.0 0.0 1 
radj_fc231 none factor 1.0 0.1 2.0 K 1.0 0.0 1 
radj_fc232 none factor 1.0 0.1 2.0 K 1.0 0.0 1 
radj_fc233 none factor 1.0 0.1 2.0 K 1.0 0.0 1 
radj_fc234 none factor 1.0 0.1 2.0 K 1.0 0.0 1 
radj_fc235 none factor 1.0 0.1 2.0 K 1.0 0.0 1 
radj_fc236 none factor 1.0 0.1 2.0 K 1.0 0.0 1 
radj_fc237 none factor 1.0 0.1 2.0 K 1.0 0.0 1 
radj_fc238 none factor 1.0 0.1 2.0 K 1.0 0.0 1 
radj_fc239 none factor 1.0 0.1 2.0 K 1.0 0.0 1 
radj_fc240 none factor 1.0 0.1 2.0 K 1.0 0.0 1 
radj_fc241 none factor 1.0 0.1 2.0 K 1.0 0.0 1 
radj_fc242 none factor 1.0 0.1 2.0 K 1.0 0.0 1 
radj_fc243 none factor 1.0 0.1 2.0 K 1.0 0.0 1 
radj_fc244 none factor 1.0 0.1 2.0 K 1.0 0.0 1 
radj_fc245 none factor 1.0 0.1 2.0 K 1.0 0.0 1 
radj_fc246 none factor 1.0 0.1 2.0 K 1.0 0.0 1 
radj_fc247 none factor 1.0 0.1 2.0 K 1.0 0.0 1 
radj_fc248 none factor 1.0 0.1 2.0 K 1.0 0.0 1 
radj_fc249 none factor 1.0 0.1 2.0 K 1.0 0.0 1 
radj_fc250 none factor 1.0 0.1 2.0 K 1.0 0.0 1 
radj_fc251 none factor 1.0 0.1 2.0 K 1.0 0.0 1 
* observation groups
head 
* observation data
SBASINy_1_0 66.3972106925 1.0 head 
SBASINy_1_1 63.0044132223 1.0 head 
SBASINy_1_2 136.115445833 1.0 head 
SBASINy_1_3 179.349555672 1.0 head 
SBASINy_1_4 76.5489883196 1.0 head 
SBASINy_1_5 349.538627566 1.0 head 
SBASINy_1_6 272.97394684 1.0 head 
SBASINy_1_7 153.917054311 1.0 head 
SBASINy_1_8 364.68177501 1.0 head 
SBASINy_1_9 172.444364295 1.0 head 
SBASINy_1_10 133.334243273 1.0 head 
SBASINy_1_11 152.502737032 1.0 head 
SBASINy_1_12 179.47083055 1.0 head 
SBASINy_1_13 198.960673722 1.0 head 
SBASINy_1_14 164.87807246 1.0 head 
SBASINy_1_15 242.378201931 1.0 head 
SBASINy_1_16 253.511061411 1.0 head 
SBASINy_1_17 77.3869479434 1.0 head 
SBASINy_1_18 125.850442197 1.0 head 
SBASINy_1_19 70.2840522327 1.0 head 
SBASINy_1_20 245.361270159 1.0 head 
SBASINy_1_21 140.48562914 1.0 head 
SBASINy_1_22 190.391978148 1.0 head 
SBASINy_1_23 20.5595197984 1.0 head 
SBASINm_1_0 286.752955831 1.0 head 
SBASINm_1_1 269.414049993 1.0 head 
SBASINm_1_2 112.457210179 1.0 head 
SBASINm_1_3 22.5423399784 1.0 head 
SBASINm_1_4 67.9864880067 1.0 head 
SBASINm_1_5 39.2670681686 1.0 head 
SBASINm_1_6 5.04979229308 1.0 head 
SBASINm_1_7 1.9409060561 1.0 head 
SBASINm_1_8 0.975842267976 1.0 head 
SBASINm_1_9 0.705172683799 1.0 head 
SBASINm_1_10 0.622868671672 1.0 head 
SBASINm_1_11 2.17666625188 1.0 head 
SBASINm_1_12 4.37826084905 1.0 head 
SBASINm_1_13 27.6731881919 1.0 head 
SBASINm_1_14 565.902450152 1.0 head 
SBASINm_1_15 69.3162214221 1.0 head 
SBASINm_1_16 19.7376631064 1.0 head 
SBASINm_1_17 8.62194910036 1.0 head 
SBASINm_1_18 2.83769593222 1.0 head 
SBASINm_1_19 0.743398310902 1.0 head 
SBASINm_1_20 0.407161509391 1.0 head 
SBASINm_1_21 1.4939346082 1.0 head 
SBASINm_1_22 6.94146723407 1.0 head 
SBASINm_1_23 39.2020028082 1.0 head 
SBASINm_1_24 101.152073334 1.0 head 
SBASINm_1_25 669.193935689 1.0 head 
SBASINm_1_26 283.384323472 1.0 head 
SBASINm_1_27 52.892850309 1.0 head 
SBASINm_1_28 13.004583077 1.0 head 
SBASINm_1_29 5.62456006571 1.0 head 
SBASINm_1_30 2.67283139196 1.0 head 
SBASINm_1_31 0.594623771774 1.0 head 
SBASINm_1_32 0.356520849908 1.0 head 
SBASINm_1_33 3.44691474066 1.0 head 
SBASINm_1_34 8.23452638282 1.0 head 
SBASINm_1_35 511.821273167 1.0 head 
SBASINm_1_36 1089.4509516 1.0 head 
SBASINm_1_37 541.401095067 1.0 head 
SBASINm_1_38 202.339297649 1.0 head 
SBASINm_1_39 120.350129227 1.0 head 
SBASINm_1_40 52.320801523 1.0 head 
SBASINm_1_41 51.5188035078 1.0 head 
SBASINm_1_42 7.91418601519 1.0 head 
SBASINm_1_43 2.03812616982 1.0 head 
SBASINm_1_44 0.691471199981 1.0 head 
SBASINm_1_45 0.958834037725 1.0 head 
SBASINm_1_46 2.45928631277 1.0 head 
SBASINm_1_47 98.2928498116 1.0 head 
SBASINm_1_48 174.358540421 1.0 head 
SBASINm_1_49 411.447856715 1.0 head 
SBASINm_1_50 66.2738840294 1.0 head 
SBASINm_1_51 32.4635441872 1.0 head 
SBASINm_1_52 18.0431661594 1.0 head 
SBASINm_1_53 4.15684188401 1.0 head 
SBASINm_1_54 1.03110517092 1.0 head 
SBASINm_1_55 0.410556432955 1.0 head 
SBASINm_1_56 0.28521100116 1.0 head 
SBASINm_1_57 0.680101618829 1.0 head 
SBASINm_1_58 52.6957191051 1.0 head 
SBASINm_1_59 182.163977241 1.0 head 
SBASINm_1_60 1969.62206521 1.0 head 
SBASINm_1_61 247.58762175 1.0 head 
SBASINm_1_62 1171.0991113 1.0 head 
SBASINm_1_63 197.436088402 1.0 head 
SBASINm_1_64 155.558497941 1.0 head 
SBASINm_1_65 20.6637696426 1.0 head 
SBASINm_1_66 7.0108462809 1.0 head 
SBASINm_1_67 1.81924518854 1.0 head 
SBASINm_1_68 0.663307535712 1.0 head 
SBASINm_1_69 0.393286232982 1.0 head 
SBASINm_1_70 0.510435945686 1.0 head 
SBASINm_1_71 374.204612586 1.0 head 
SBASINm_1_72 950.921619268 1.0 head 
SBASINm_1_73 777.206476163 1.0 head 
SBASINm_1_74 359.951378495 1.0 head 
SBASINm_1_75 115.74809661 1.0 head 
SBASINm_1_76 75.1436928082 1.0 head 
SBASINm_1_77 17.8838108133 1.0 head 
SBASINm_1_78 3.36871250372 1.0 head 
SBASINm_1_79 0.847484217615 1.0 head 
SBASINm_1_80 0.423129285679 1.0 head 
SBASINm_1_81 0.732432884723 1.0 head 
SBASINm_1_82 30.9617244888 1.0 head 
SBASINm_1_83 945.130612042 1.0 head 
SBASINm_1_84 1086.9059451 1.0 head 
SBASINm_1_85 175.91160076 1.0 head 
SBASINm_1_86 104.099236689 1.0 head 
SBASINm_1_87 43.0475188506 1.0 head 
SBASINm_1_88 15.0033728427 1.0 head 
SBASINm_1_89 4.41758295573 1.0 head 
SBASINm_1_90 1.09726985126 1.0 head 
SBASINm_1_91 0.771552392902 1.0 head 
SBASINm_1_92 1.27428252851 1.0 head 
SBASINm_1_93 4.78459867662 1.0 head 
SBASINm_1_94 146.755235389 1.0 head 
SBASINm_1_95 251.510973179 1.0 head 
SBASINm_1_96 1390.64017358 1.0 head 
SBASINm_1_97 1984.1276267 1.0 head 
SBASINm_1_98 432.549557117 1.0 head 
SBASINm_1_99 254.613694762 1.0 head 
SBASINm_1_100 84.5915473043 1.0 head 
SBASINm_1_101 53.5815020443 1.0 head 
SBASINm_1_102 8.33899972028 1.0 head 
SBASINm_1_103 1.95453131284 1.0 head 
SBASINm_1_104 0.704510801784 1.0 head 
SBASINm_1_105 1.08692370221 1.0 head 
SBASINm_1_106 100.92153415 1.0 head 
SBASINm_1_107 185.955592371 1.0 head 
SBASINm_1_108 243.539952301 1.0 head 
SBASINm_1_109 1091.38715896 1.0 head 
SBASINm_1_110 477.405668542 1.0 head 
SBASINm_1_111 192.968483768 1.0 head 
SBASINm_1_112 38.7485328258 1.0 head 
SBASINm_1_113 13.1099839325 1.0 head 
SBASINm_1_114 4.20525455958 1.0 head 
SBASINm_1_115 1.0803625474 1.0 head 
SBASINm_1_116 0.55637646635 1.0 head 
SBASINm_1_117 1.06381044012 1.0 head 
SBASINm_1_118 30.0640126995 1.0 head 
SBASINm_1_119 49.5172836534 1.0 head 
SBASINm_1_120 331.975582263 1.0 head 
SBASINm_1_121 882.961904897 1.0 head 
SBASINm_1_122 291.434425228 1.0 head 
SBASINm_1_123 71.6899565116 1.0 head 
SBASINm_1_124 23.5795231402 1.0 head 
SBASINm_1_125 5.51454886746 1.0 head 
SBASINm_1_126 1.26863594924 1.0 head 
SBASINm_1_127 0.403787953571 1.0 head 
SBASINm_1_128 0.272049483982 1.0 head 
SBASINm_1_129 3.83354739559 1.0 head 
SBASINm_1_130 6.41407093985 1.0 head 
SBASINm_1_131 14.5276923198 1.0 head 
SBASINm_1_132 119.831554566 1.0 head 
SBASINm_1_133 450.484777938 1.0 head 
SBASINm_1_134 226.646547002 1.0 head 
SBASINm_1_135 29.945191157 1.0 head 
SBASINm_1_136 11.3821409721 1.0 head 
SBASINm_1_137 4.26723842602 1.0 head 
SBASINm_1_138 1.39899105172 1.0 head 
SBASINm_1_139 0.520047338444 1.0 head 
SBASINm_1_140 0.314807861613 1.0 head 
SBASINm_1_141 0.680957257711 1.0 head 
SBASINm_1_142 196.973114006 1.0 head 
SBASINm_1_143 804.214429266 1.0 head 
SBASINm_1_144 470.05092082 1.0 head 
SBASINm_1_145 239.044676254 1.0 head 
SBASINm_1_146 169.773308417 1.0 head 
SBASINm_1_147 47.8447802029 1.0 head 
SBASINm_1_148 16.5185173308 1.0 head 
SBASINm_1_149 5.09637406981 1.0 head 
SBASINm_1_150 1.32605266493 1.0 head 
SBASINm_1_151 0.658314699635 1.0 head 
SBASINm_1_152 0.467035038149 1.0 head 
SBASINm_1_153 0.437851380094 1.0 head 
SBASINm_1_154 12.2015950042 1.0 head 
SBASINm_1_155 1174.95466973 1.0 head 
SBASINm_1_156 553.885028354 1.0 head 
SBASINm_1_157 171.510284081 1.0 head 
SBASINm_1_158 228.310627655 1.0 head 
SBASINm_1_159 465.966378869 1.0 head 
SBASINm_1_160 198.48877787 1.0 head 
SBASINm_1_161 20.9167854799 1.0 head 
SBASINm_1_162 8.38991923328 1.0 head 
SBASINm_1_163 3.09795479252 1.0 head 
SBASINm_1_164 1.05683674625 1.0 head 
SBASINm_1_165 0.577433876668 1.0 head 
SBASINm_1_166 7.54027070806 1.0 head 
SBASINm_1_167 715.44218726 1.0 head 
SBASINm_1_168 437.910786768 1.0 head 
SBASINm_1_169 985.273916523 1.0 head 
SBASINm_1_170 173.106488014 1.0 head 
SBASINm_1_171 38.092491807 1.0 head 
SBASINm_1_172 12.2303938262 1.0 head 
SBASINm_1_173 3.54741340587 1.0 head 
SBASINm_1_174 0.861933473736 1.0 head 
SBASINm_1_175 0.443947085614 1.0 head 
SBASINm_1_176 0.300339729444 1.0 head 
SBASINm_1_177 4.71881864204 1.0 head 
SBASINm_1_178 5.69951418447 1.0 head 
SBASINm_1_179 349.54176662 1.0 head 
SBASINm_1_180 508.33639232 1.0 head 
SBASINm_1_181 193.03094423 1.0 head 
SBASINm_1_182 429.406251346 1.0 head 
SBASINm_1_183 244.016508497 1.0 head 
SBASINm_1_184 139.468573774 1.0 head 
SBASINm_1_185 47.5860121687 1.0 head 
SBASINm_1_186 11.5122340091 1.0 head 
SBASINm_1_187 2.40445332878 1.0 head 
SBASINm_1_188 0.789292966214 1.0 head 
SBASINm_1_189 0.772375177004 1.0 head 
SBASINm_1_190 22.8622450488 1.0 head 
SBASINm_1_191 1282.4724783 1.0 head 
SBASINm_1_192 819.310392657 1.0 head 
SBASINm_1_193 410.688336203 1.0 head 
SBASINm_1_194 791.577241185 1.0 head 
SBASINm_1_195 626.745447888 1.0 head 
SBASINm_1_196 69.9672147632 1.0 head 
SBASINm_1_197 21.6649181791 1.0 head 
SBASINm_1_198 7.41258147634 1.0 head 
SBASINm_1_199 1.72371928665 1.0 head 
SBASINm_1_200 0.582897711403 1.0 head 
SBASINm_1_201 0.639818239964 1.0 head 
SBASINm_1_202 14.6694965795 1.0 head 
SBASINm_1_203 281.058748211 1.0 head 
SBASINm_1_204 68.4847117048 1.0 head 
SBASINm_1_205 553.932810072 1.0 head 
SBASINm_1_206 146.202129558 1.0 head 
SBASINm_1_207 46.2048110635 1.0 head 
SBASINm_1_208 20.3326314465 1.0 head 
SBASINm_1_209 4.08923721159 1.0 head 
SBASINm_1_210 0.949774087423 1.0 head 
SBASINm_1_211 0.484212542761 1.0 head 
SBASINm_1_212 0.309503687605 1.0 head 
SBASINm_1_213 3.1598769833 1.0 head 
SBASINm_1_214 5.39921041075 1.0 head 
SBASINm_1_215 117.032936132 1.0 head 
SBASINm_1_216 858.754619884 1.0 head 
SBASINm_1_217 485.365676076 1.0 head 
SBASINm_1_218 74.0438052082 1.0 head 
SBASINm_1_219 21.316038137 1.0 head 
SBASINm_1_220 7.68294221411 1.0 head 
SBASINm_1_221 1.88665468601 1.0 head 
SBASINm_1_222 0.628527713468 1.0 head 
SBASINm_1_223 0.380365939355 1.0 head 
SBASINm_1_224 0.380240222463 1.0 head 
SBASINm_1_225 2.97168855853 1.0 head 
SBASINm_1_226 9.52911336423 1.0 head 
SBASINm_1_227 55.2895293762 1.0 head 
SBASINm_1_228 34.3257128392 1.0 head 
SBASINm_1_229 409.905385367 1.0 head 
SBASINm_1_230 268.855579647 1.0 head 
SBASINm_1_231 31.1080198994 1.0 head 
SBASINm_1_232 67.8204461555 1.0 head 
SBASINm_1_233 9.60932015348 1.0 head 
SBASINm_1_234 1.75339509327 1.0 head 
SBASINm_1_235 0.534631213317 1.0 head 
SBASINm_1_236 0.320508912959 1.0 head 
SBASINm_1_237 6.02076713487 1.0 head 
SBASINm_1_238 4.26985427816 1.0 head 
SBASINm_1_239 34.1442155734 1.0 head 
SBASINm_1_240 754.210406468 1.0 head 
SBASINm_1_241 349.138805648 1.0 head 
SBASINm_1_242 285.177406372 1.0 head 
SBASINm_1_243 448.980349065 1.0 head 
SBASINm_1_244 97.0250090972 1.0 head 
SBASINm_1_245 34.134538451 1.0 head 
SBASINm_1_246 8.84710795814 1.0 head 
SBASINm_1_247 2.19557286284 1.0 head 
SBASINm_1_248 0.796091123569 1.0 head 
SBASINm_1_249 95.4043066986 1.0 head 
SBASINm_1_250 166.778689822 1.0 head 
SBASINm_1_251 701.020416227 1.0 head 
SBASINm_1_252 214.200669197 1.0 head 
SBASINm_1_253 340.515971842 1.0 head 
SBASINm_1_254 889.637763001 1.0 head 
SBASINm_1_255 129.206971428 1.0 head 
SBASINm_1_256 36.4772538128 1.0 head 
SBASINm_1_257 27.3607973724 1.0 head 
SBASINm_1_258 4.46701112067 1.0 head 
SBASINm_1_259 0.924155761114 1.0 head 
SBASINm_1_260 10.5581118157 1.0 head 
SBASINm_1_261 14.3718067394 1.0 head 
SBASINm_1_262 16.5202690727 1.0 head 
SBASINm_1_263 8.74143501233 1.0 head 
SBASINm_1_264 228.073060363 1.0 head 
SBASINm_1_265 76.4629285051 1.0 head 
SBASINm_1_266 457.990609224 1.0 head 
SBASINm_1_267 288.572311045 1.0 head 
SBASINm_1_268 35.7770482002 1.0 head 
SBASINm_1_269 12.0956163491 1.0 head 
SBASINm_1_270 4.41108979106 1.0 head 
SBASINm_1_271 1.35122145455 1.0 head 
SBASINm_1_272 0.599645027514 1.0 head 
SBASINm_1_273 0.840184441957 1.0 head 
SBASINm_1_274 159.84678263 1.0 head 
SBASINm_1_275 1001.64092924 1.0 head 
SBASINm_1_276 130.113401019 1.0 head 
SBASINm_1_277 33.0387362873 1.0 head 
SBASINm_1_278 40.7341691694 1.0 head 
SBASINm_1_279 31.4240638972 1.0 head 
SBASINm_1_280 4.7018504964 1.0 head 
SBASINm_1_281 1.12549542335 1.0 head 
SBASINm_1_282 0.522205925203 1.0 head 
SBASINm_1_283 0.452009540248 1.0 head 
SBASINm_1_284 0.665875003254 1.0 head 
SBASINm_1_285 0.610685060585 1.0 head 
SBASINm_1_286 1.62424125985 1.0 head 
SBASINm_1_287 1.38018984943 1.0 head 
SBASINy_2_0 40.9077352044 1.0 head 
SBASINy_2_1 46.1765976271 1.0 head 
SBASINy_2_2 94.7835893661 1.0 head 
SBASINy_2_3 135.583434779 1.0 head 
SBASINy_2_4 48.1961781335 1.0 head 
SBASINy_2_5 263.172123766 1.0 head 
SBASINy_2_6 195.253661032 1.0 head 
SBASINy_2_7 112.714809474 1.0 head 
SBASINy_2_8 275.210407139 1.0 head 
SBASINy_2_9 127.638794855 1.0 head 
SBASINy_2_10 102.91873516 1.0 head 
SBASINy_2_11 111.149707148 1.0 head 
SBASINy_2_12 130.848253189 1.0 head 
SBASINy_2_13 139.454817759 1.0 head 
SBASINy_2_14 118.76435487 1.0 head 
SBASINy_2_15 172.845642363 1.0 head 
SBASINy_2_16 185.090017299 1.0 head 
SBASINy_2_17 49.0249653447 1.0 head 
SBASINy_2_18 83.9081302408 1.0 head 
SBASINy_2_19 45.6087988053 1.0 head 
SBASINy_2_20 167.154527647 1.0 head 
SBASINy_2_21 102.514441112 1.0 head 
SBASINy_2_22 129.214816118 1.0 head 
SBASINy_2_23 15.4569925974 1.0 head 
SBASINm_2_0 176.578569714 1.0 head 
SBASINm_2_1 156.241473868 1.0 head 
SBASINm_2_2 56.4459741066 1.0 head 
SBASINm_2_3 15.7076399273 1.0 head 
SBASINm_2_4 50.1542420228 1.0 head 
SBASINm_2_5 30.0023320031 1.0 head 
SBASINm_2_6 4.29096539757 1.0 head 
SBASINm_2_7 1.14661954547 1.0 head 
SBASINm_2_8 0.440095730038 1.0 head 
SBASINm_2_9 0.313378429497 1.0 head 
SBASINm_2_10 0.830566901418 1.0 head 
SBASINm_2_11 6.13938125033 1.0 head 
SBASINm_2_12 8.89759018068 1.0 head 
SBASINm_2_13 16.6581222987 1.0 head 
SBASINm_2_14 408.488734992 1.0 head 
SBASINm_2_15 51.0796793931 1.0 head 
SBASINm_2_16 16.5454719538 1.0 head 
SBASINm_2_17 6.64460459357 1.0 head 
SBASINm_2_18 2.33092464795 1.0 head 
SBASINm_2_19 0.622204106738 1.0 head 
SBASINm_2_20 0.307183923118 1.0 head 
SBASINm_2_21 1.29750912345 1.0 head 
SBASINm_2_22 13.789883412 1.0 head 
SBASINm_2_23 20.9591833775 1.0 head 
SBASINm_2_24 48.5214096229 1.0 head 
SBASINm_2_25 437.295905985 1.0 head 
SBASINm_2_26 181.020344373 1.0 head 
SBASINm_2_27 33.4863719618 1.0 head 
SBASINm_2_28 9.62847260815 1.0 head 
SBASINm_2_29 4.13968313376 1.0 head 
SBASINm_2_30 1.65714808077 1.0 head 
SBASINm_2_31 0.53700065582 1.0 head 
SBASINm_2_32 0.331817733881 1.0 head 
SBASINm_2_33 2.97270682657 1.0 head 
SBASINm_2_34 12.2761558874 1.0 head 
SBASINm_2_35 417.023936314 1.0 head 
SBASINm_2_36 851.327729149 1.0 head 
SBASINm_2_37 440.442213283 1.0 head 
SBASINm_2_38 143.964554213 1.0 head 
SBASINm_2_39 62.537284199 1.0 head 
SBASINm_2_40 36.4830851429 1.0 head 
SBASINm_2_41 39.236966946 1.0 head 
SBASINm_2_42 5.03158545053 1.0 head 
SBASINm_2_43 1.32667114091 1.0 head 
SBASINm_2_44 0.377146041796 1.0 head 
SBASINm_2_45 0.741520345801 1.0 head 
SBASINm_2_46 5.54463838275 1.0 head 
SBASINm_2_47 55.4697144047 1.0 head 
SBASINm_2_48 105.128968751 1.0 head 
SBASINm_2_49 238.068996131 1.0 head 
SBASINm_2_50 35.0556017153 1.0 head 
SBASINm_2_51 25.1093316437 1.0 head 
SBASINm_2_52 13.2718115043 1.0 head 
SBASINm_2_53 3.26497161067 1.0 head 
SBASINm_2_54 0.952541334539 1.0 head 
SBASINm_2_55 0.274679018377 1.0 head 
SBASINm_2_56 0.236265229572 1.0 head 
SBASINm_2_57 1.62355895369 1.0 head 
SBASINm_2_58 40.4366824534 1.0 head 
SBASINm_2_59 129.313987076 1.0 head 
SBASINm_2_60 1396.66399445 1.0 head 
SBASINm_2_61 193.416087463 1.0 head 
SBASINm_2_62 928.245201704 1.0 head 
SBASINm_2_63 163.893056228 1.0 head 
SBASINm_2_64 116.72741295 1.0 head 
SBASINm_2_65 15.0062476707 1.0 head 
SBASINm_2_66 4.82006332075 1.0 head 
SBASINm_2_67 1.23651308651 1.0 head 
SBASINm_2_68 0.549637508909 1.0 head 
SBASINm_2_69 0.362666017087 1.0 head 
SBASINm_2_70 3.9928548918 1.0 head 
SBASINm_2_71 298.360949652 1.0 head 
SBASINm_2_72 660.474413868 1.0 head 
SBASINm_2_73 597.918322533 1.0 head 
SBASINm_2_74 269.932004197 1.0 head 
SBASINm_2_75 70.5328479445 1.0 head 
SBASINm_2_76 54.5423297975 1.0 head 
SBASINm_2_77 12.984643243 1.0 head 
SBASINm_2_78 3.18206942439 1.0 head 
SBASINm_2_79 0.84606250174 1.0 head 
SBASINm_2_80 0.332294589217 1.0 head 
SBASINm_2_81 0.699590632252 1.0 head 
SBASINm_2_82 23.469207033 1.0 head 
SBASINm_2_83 652.376394099 1.0 head 
SBASINm_2_84 835.549867977 1.0 head 
SBASINm_2_85 135.972465906 1.0 head 
SBASINm_2_86 75.9721402832 1.0 head 
SBASINm_2_87 25.2326372723 1.0 head 
SBASINm_2_88 10.1344047845 1.0 head 
SBASINm_2_89 2.58282554217 1.0 head 
SBASINm_2_90 0.545514168282 1.0 head 
SBASINm_2_91 0.417134761923 1.0 head 
SBASINm_2_92 1.16106223956 1.0 head 
SBASINm_2_93 5.50615936923 1.0 head 
SBASINm_2_94 90.4147767384 1.0 head 
SBASINm_2_95 160.646951527 1.0 head 
SBASINm_2_96 994.61878896 1.0 head 
SBASINm_2_97 1584.25161586 1.0 head 
SBASINm_2_98 363.574459703 1.0 head 
SBASINm_2_99 185.851626376 1.0 head 
SBASINm_2_100 61.0940704173 1.0 head 
SBASINm_2_101 41.9519623917 1.0 head 
SBASINm_2_102 7.10472032564 1.0 head 
SBASINm_2_103 2.152874658 1.0 head 
SBASINm_2_104 0.727309242895 1.0 head 
SBASINm_2_105 0.875597437925 1.0 head 
SBASINm_2_106 70.9399640882 1.0 head 
SBASINm_2_107 90.2126336133 1.0 head 
SBASINm_2_108 152.21285251 1.0 head 
SBASINm_2_109 809.034240262 1.0 head 
SBASINm_2_110 346.931076139 1.0 head 
SBASINm_2_111 167.617867389 1.0 head 
SBASINm_2_112 28.2900509554 1.0 head 
SBASINm_2_113 9.57254922372 1.0 head 
SBASINm_2_114 2.80193960141 1.0 head 
SBASINm_2_115 0.721334303181 1.0 head 
SBASINm_2_116 0.335750123169 1.0 head 
SBASINm_2_117 1.01647613676 1.0 head 
SBASINm_2_118 30.1632366896 1.0 head 
SBASINm_2_119 39.1397958982 1.0 head 
SBASINm_2_120 206.313191532 1.0 head 
SBASINm_2_121 673.375994749 1.0 head 
SBASINm_2_122 237.780558547 1.0 head 
SBASINm_2_123 53.5418303163 1.0 head 
SBASINm_2_124 17.5975364684 1.0 head 
SBASINm_2_125 4.86996543458 1.0 head 
SBASINm_2_126 1.32355482007 1.0 head 
SBASINm_2_127 0.519173619792 1.0 head 
SBASINm_2_128 0.320373038837 1.0 head 
SBASINm_2_129 3.35929098069 1.0 head 
SBASINm_2_130 42.170433185 1.0 head 
SBASINm_2_131 20.6316992454 1.0 head 
SBASINm_2_132 66.7925071573 1.0 head 
SBASINm_2_133 300.607210388 1.0 head 
SBASINm_2_134 157.720505267 1.0 head 
SBASINm_2_135 25.2680300803 1.0 head 
SBASINm_2_136 8.54124726053 1.0 head 