pcf
* control data
restart estimation
   3535    203     17      0       6
      8     21 single  point   1   0   0
  5.0  -3.0   0.3  0.03    10
 15.0  15.0 0.001  0
  0.1
   50  0.01     3     3  0.01     3
    1     1     1
* singular value decomposition
         1
      1000     1E-07
         0
* parameter groups
FINF           relative   0.020  0.0   switch  2.0   parabolic
pET            relative   0.020  0.0   switch  2.0   parabolic
StrmBed        relative   0.020  0.0   switch  2.0   parabolic
L1_Kh          relative   0.020  0.0   switch  2.0   parabolic
L2_Kh_Zn2      relative   0.020  0.0   switch  2.0   parabolic
L2_Kh_Zn3      relative   0.020  0.0   switch  2.0   parabolic
L2_Kh_Zn4      relative   0.020  0.0   switch  2.0   parabolic
L2_Kh_Zn5      relative   0.020  0.0   switch  2.0   parabolic
L2_Kh_Zn6      relative   0.020  0.0   switch  2.0   parabolic
L2_Kh_Zn7      relative   0.020  0.0   switch  2.0   parabolic
L2_Kh_Zn8      relative   0.020  0.0   switch  2.0   parabolic
L2_Kh_Zn9      relative   0.020  0.0   switch  2.0   parabolic
L3_Kh_Zn10     relative   0.020  0.0   switch  2.0   parabolic
SurfK_Alluv    relative   0.020  0.0   switch  2.0   parabolic
SurfK_Mtn      relative   0.020  0.0   switch  2.0   parabolic
vks_alluv      relative   0.020  0.0   switch  2.0   parabolic
vks_mtn        relative   0.020  0.0   switch  2.0   parabolic
* parameter data
              finf       log    factor      0.4915662            0.1              1           finf       1       0       1
             extdp       log    factor      0.1045052            0.1              1           finf       1       0       1
               pet       log    factor      0.4881839            0.2            1.2            pet       1       0       1
          kh_lay_1     fixed    factor       1.041357         0.0001           1000          l1_kh       1       0       1
         srfk_mult       log    factor  3.2173706E-05     0.00000001             10    surfk_alluv       1       0       1
          vks_mult       log    factor       8.442544           0.01             10    surfk_alluv       1       0       1
           pp_3_l1       log    factor       7.427907        0.00001            500          l1_kh       1       0       1
           pp_4_l1       log    factor       2.190885        0.00001            500          l1_kh       1       0       1
           pp_9_l1       log    factor      0.7374966        0.00001            500          l1_kh       1       0       1
          pp_10_l1       log    factor       144.3129        0.00001            500          l1_kh       1       0       1
          pp_12_l1       log    factor       2.205037        0.00001            500          l1_kh       1       0       1
          pp_16_l1       log    factor       6.643688        0.00001            500          l1_kh       1       0       1
          pp_17_l1       log    factor      0.8715323        0.00001            500          l1_kh       1       0       1
          pp_18_l1       log    factor       2.694013        0.00001            500          l1_kh       1       0       1
          pp_23_l1       log    factor       214.8049        0.00001            500          l1_kh       1       0       1
          pp_24_l1       log    factor       126.6291        0.00001            500          l1_kh       1       0       1
          pp_26_l1       log    factor       6.160619        0.00001            500          l1_kh       1       0       1
          pp_27_l1       log    factor       1.362564        0.00001            500          l1_kh       1       0       1
          pp_29_l1       log    factor       103.0494        0.00001            500          l1_kh       1       0       1
          pp_30_l1       log    factor       2.972826        0.00001            500          l1_kh       1       0       1
          pp_34_l1       log    factor       2.001864        0.00001            500          l1_kh       1       0       1
          pp_35_l1       log    factor       1.771874        0.00001            500          l1_kh       1       0       1
          pp_36_l1       log    factor       155.0079        0.00001            500          l1_kh       1       0       1
          pp_39_l1       log    factor       15.09622        0.00001            500          l1_kh       1       0       1
          pp_41_l1       log    factor       32.63873        0.00001            500          l1_kh       1       0       1
          pp_42_l1       log    factor       134.4883        0.00001            500          l1_kh       1       0       1
          pp_45_l1       log    factor      0.9073082        0.00001            500          l1_kh       1       0       1
          pp_47_l1       log    factor       4.637999        0.00001            500          l1_kh       1       0       1
          pp_50_l1       log    factor       7.503417        0.00001            500          l1_kh       1       0       1
          pp_51_l1       log    factor      0.8340685        0.00001            500          l1_kh       1       0       1
          pp_54_l1       log    factor       12.56946        0.00001            500          l1_kh       1       0       1
          pp_56_l1       log    factor      0.7228331        0.00001            500          l1_kh       1       0       1
          pp_58_l1       log    factor       5.074742        0.00001            500          l1_kh       1       0       1
          pp_61_l1       log    factor       3.163478        0.00001            500          l1_kh       1       0       1
          pp_63_l1       log    factor       3.535773        0.00001            500          l1_kh       1       0       1
          pp_68_l1       log    factor      0.9007191        0.00001            500          l1_kh       1       0       1
          pp_71_l1       log    factor       380.6793        0.00001            500          l1_kh       1       0       1
          pp_77_l1       log    factor       1.283458        0.00001            500          l1_kh       1       0       1
          pp_78_l1       log    factor       2.571655        0.00001            500          l1_kh       1       0       1
          pp_82_l1       log    factor       59.48472        0.00001            500          l1_kh       1       0       1
          pp_88_l1       log    factor       2.364523        0.00001            500          l1_kh       1       0       1
          pp_90_l1       log    factor      0.2402393        0.00001            500          l1_kh       1       0       1
          pp_91_l1       log    factor       2.389642        0.00001            500          l1_kh       1       0       1
          pp_93_l1       log    factor       2.100506        0.00001            500          l1_kh       1       0       1
          pp_94_l1       log    factor       1.728411        0.00001            500          l1_kh       1       0       1
          pp_95_l1       log    factor       2.673053        0.00001            500          l1_kh       1       0       1
          pp_96_l1       log    factor       8.326626        0.00001            500          l1_kh       1       0       1
          pp_98_l1       log    factor       2.729824        0.00001            500          l1_kh       1       0       1
          pp_99_l1       log    factor       3.278495        0.00001            500          l1_kh       1       0       1
         pp_101_l1       log    factor       4.915930        0.00001            500          l1_kh       1       0       1
         pp_103_l1       log    factor       3.816541        0.00001            500          l1_kh       1       0       1
         pp_105_l1       log    factor       3.499478        0.00001            500          l1_kh       1       0       1
         pp_107_l1       log    factor       3.509489        0.00001            500          l1_kh       1       0       1
         pp_108_l1       log    factor  6.8420564E-02        0.00001            500          l1_kh       1       0       1
         pp_110_l1       log    factor       2.373239        0.00001            500          l1_kh       1       0       1
         pp_114_l1       log    factor       1.739379        0.00001            500          l1_kh       1       0       1
         pp_117_l1       log    factor       1.806993        0.00001            500          l1_kh       1       0       1
         pp_119_l1       log    factor       1.844412        0.00001            500          l1_kh       1       0       1
         pp_122_l1       log    factor       2.053543        0.00001            500          l1_kh       1       0       1
         pp_125_l1       log    factor       1.560118        0.00001            500          l1_kh       1       0       1
         pp_126_l1       log    factor       1.947466        0.00001            500          l1_kh       1       0       1
         pp_127_l1       log    factor       2.091591        0.00001            500          l1_kh       1       0       1
         pp_128_l1       log    factor       1.056903        0.00001            500          l1_kh       1       0       1
         pp_129_l1       log    factor      0.8201289        0.00001            500          l1_kh       1       0       1
         pp_135_l1       log    factor       8.486104        0.00001            500          l1_kh       1       0       1
         pp_142_l1       log    factor       1.585245        0.00001            500          l1_kh       1       0       1
         pp_145_l1       log    factor       2.646082        0.00001            500          l1_kh       1       0       1
         pp_148_l1       log    factor       1.487703        0.00001            500          l1_kh       1       0       1
         pp_152_l1       log    factor      0.9365660        0.00001            500          l1_kh       1       0       1
         pp_153_l1       log    factor       2.125062        0.00001            500          l1_kh       1       0       1
         pp_155_l1       log    factor       2.249637        0.00001            500          l1_kh       1       0       1
         pp_159_l1       log    factor       1.731309        0.00001            500          l1_kh       1       0       1
         pp_160_l1       log    factor       1.856162        0.00001            500          l1_kh       1       0       1
         pp_164_l1       log    factor       3.985230        0.00001            500          l1_kh       1       0       1
         pp_166_l1       log    factor       1.598071        0.00001            500          l1_kh       1       0       1
         pp_167_l1       log    factor       2.911774        0.00001            500          l1_kh       1       0       1
         pp_168_l1       log    factor       2.864285        0.00001            500          l1_kh       1       0       1
         pp_170_l1       log    factor       2.549290        0.00001            500          l1_kh       1       0       1
         pp_174_l1       log    factor       1.683253        0.00001            500          l1_kh       1       0       1
         pp_179_l1       log    factor      0.8857435        0.00001            500          l1_kh       1       0       1
         pp_182_l1       log    factor       2.517694        0.00001            500          l1_kh       1       0       1
         pp_187_l1       log    factor       5.269267        0.00001            500          l1_kh       1       0       1
         pp_189_l1       log    factor       2.094560        0.00001            500          l1_kh       1       0       1
         pp_190_l1       log    factor       1.812518        0.00001            500          l1_kh       1       0       1
         pp_191_l1       log    factor       1.402719        0.00001            500          l1_kh       1       0       1
         pp_193_l1       log    factor       1.767413        0.00001            500          l1_kh       1       0       1
         pp_198_l1       log    factor       3.717059        0.00001            500          l1_kh       1       0       1
         pp_200_l1       log    factor      0.4833149        0.00001            500          l1_kh       1       0       1
         pp_201_l1       log    factor       1.400835        0.00001            500          l1_kh       1       0       1
         pp_202_l1       log    factor       1.562278        0.00001            500          l1_kh       1       0       1
         pp_205_l1       log    factor       1.928658        0.00001            500          l1_kh       1       0       1
         pp_206_l1       log    factor       2.169171        0.00001            500          l1_kh       1       0       1
         pp_207_l1       log    factor       2.066814        0.00001            500          l1_kh       1       0       1
         pp_208_l1       log    factor       2.014311        0.00001            500          l1_kh       1       0       1
         pp_209_l1       log    factor       2.461754        0.00001            500          l1_kh       1       0       1
         pp_210_l1       log    factor       2.128467        0.00001            500          l1_kh       1       0       1
         pp_212_l1       log    factor       2.549858        0.00001            500          l1_kh       1       0       1
         pp_214_l1       log    factor       2.306401        0.00001            500          l1_kh       1       0       1
         pp_215_l1       log    factor       2.383533        0.00001            500          l1_kh       1       0       1
         pp_216_l1       log    factor       3.221755        0.00001            500          l1_kh       1       0       1
         pp_217_l1       log    factor       2.010464        0.00001            500          l1_kh       1       0       1
         pp_218_l1       log    factor       2.314032        0.00001            500          l1_kh       1       0       1
         pp_219_l1       log    factor       2.196834        0.00001            500          l1_kh       1       0       1
         pp_222_l1       log    factor      0.9150725        0.00001            500          l1_kh       1       0       1
         pp_224_l1       log    factor       2.371319        0.00001            500          l1_kh       1       0       1
         pp_225_l1       log    factor       2.282238        0.00001            500          l1_kh       1       0       1
         pp_226_l1       log    factor       1.972430        0.00001            500          l1_kh       1       0       1
         pp_227_l1       log    factor       2.360222        0.00001            500          l1_kh       1       0       1
         pp_229_l1       log    factor      0.2037314        0.00001            500          l1_kh       1       0       1
         pp_233_l1       log    factor       2.203168        0.00001            500          l1_kh       1       0       1
         pp_235_l1       log    factor       2.418243        0.00001            500          l1_kh       1       0       1
         pp_236_l1       log    factor       12.86139        0.00001            500          l1_kh       1       0       1
         pp_237_l1       log    factor       16.32383        0.00001            500          l1_kh       1       0       1
         pp_241_l1       log    factor       7.635976        0.00001            500          l1_kh       1       0       1
         pp_242_l1       log    factor      0.6912291        0.00001            500          l1_kh       1       0       1
         pp_243_l1       log    factor       1.843425        0.00001            500          l1_kh       1       0       1
         pp_245_l1       log    factor       1.242020        0.00001            500          l1_kh       1       0       1
         pp_246_l1       log    factor      0.6421382        0.00001            500          l1_kh       1       0       1
         pp_247_l1       log    factor      0.2102923        0.00001            500          l1_kh       1       0       1
         pp_251_l1       log    factor       9.536764        0.00001            500          l1_kh       1       0       1
         pp_252_l1       log    factor       1.558522        0.00001            500          l1_kh       1       0       1
         pp_253_l1       log    factor       3.517202        0.00001            500          l1_kh       1       0       1
         pp_254_l1       log    factor       3.460060        0.00001            500          l1_kh       1       0       1
         pp_255_l1       log    factor       3.841693        0.00001            500          l1_kh       1       0       1
         pp_257_l1       log    factor       4.750026        0.00001            500          l1_kh       1       0       1
         pp_258_l1       log    factor       275.1711        0.00001            500          l1_kh       1       0       1
         pp_259_l1       log    factor       13.29353        0.00001            500          l1_kh       1       0       1
         pp_260_l1       log    factor       3.494064        0.00001            500          l1_kh       1       0       1
         pp_264_l1       log    factor      0.5522278        0.00001            500          l1_kh       1       0       1
         pp_269_l1       log    factor       2.149328        0.00001            500          l1_kh       1       0       1
         pp_272_l1       log    factor      0.7574077        0.00001            500          l1_kh       1       0       1
         pp_273_l1       log    factor       11.72800        0.00001            500          l1_kh       1       0       1
         pp_277_l1       log    factor       4.423512        0.00001            500          l1_kh       1       0       1
         pp_278_l1       log    factor       1.954881        0.00001            500          l1_kh       1       0       1
         pp_282_l1       log    factor       2.107903        0.00001            500          l1_kh       1       0       1
         pp_286_l1       log    factor       1.739668        0.00001            500          l1_kh       1       0       1
         pp_290_l1       log    factor       1.817751        0.00001            500          l1_kh       1       0       1
         pp_291_l1       log    factor      0.8462912        0.00001            500          l1_kh       1       0       1
         pp_294_l1       log    factor      0.8740857        0.00001            500          l1_kh       1       0       1
         pp_295_l1       log    factor       10.32164        0.00001            500          l1_kh       1       0       1
         pp_296_l1       log    factor       2.654670        0.00001            500          l1_kh       1       0       1
         pp_302_l1       log    factor       4.809169        0.00001            500          l1_kh       1       0       1
         pp_303_l1       log    factor       1.966663        0.00001            500          l1_kh       1       0       1
         pp_306_l1       log    factor       4.328478        0.00001            500          l1_kh       1       0       1
         pp_307_l1       log    factor       5.398460        0.00001            500          l1_kh       1       0       1
         pp_309_l1       log    factor      0.5110978        0.00001            500          l1_kh       1       0       1
         pp_313_l1       log    factor       1.661864        0.00001            500          l1_kh       1       0       1
         pp_318_l1       log    factor       5.721435        0.00001            500          l1_kh       1       0       1
         pp_321_l1       log    factor       2.537548        0.00001            500          l1_kh       1       0       1
         pp_323_l1       log    factor       1.093847        0.00001            500          l1_kh       1       0       1
         pp_324_l1       log    factor       2.715782        0.00001            500          l1_kh       1       0       1
         pp_325_l1       log    factor      0.6821056        0.00001            500          l1_kh       1       0       1
         pp_330_l1       log    factor       4.110455        0.00001            500          l1_kh       1       0       1
         pp_340_l1       log    factor       3.410597        0.00001            500          l1_kh       1       0       1
         pp_342_l1       log    factor       1.852341        0.00001            500          l1_kh       1       0       1
         pp_344_l1       log    factor       1.838730        0.00001            500          l1_kh       1       0       1
         pp_345_l1       log    factor       1.747341        0.00001            500          l1_kh       1       0       1
         pp_347_l1       log    factor  5.1694706E-02        0.00001            500          l1_kh       1       0       1
         pp_348_l1       log    factor      0.4127261        0.00001            500          l1_kh       1       0       1
         pp_352_l1       log    factor       24.40897        0.00001            500          l1_kh       1       0       1
         pp_355_l1       log    factor  3.8220180E-02        0.00001            500          l1_kh       1       0       1
         pp_358_l1       log    factor       5.047966        0.00001            500          l1_kh       1       0       1
         pp_366_l1       log    factor       12.41486        0.00001            500          l1_kh       1       0       1
         pp_370_l1       log    factor      0.1260604        0.00001            500          l1_kh       1       0       1
         pp_372_l1       log    factor       3.785386        0.00001            500          l1_kh       1       0       1
         pp_374_l1       log    factor       2.591654        0.00001            500          l1_kh       1       0       1
         pp_376_l1       log    factor       5.329981        0.00001            500          l1_kh       1       0       1
         pp_377_l1       log    factor       6.323234        0.00001            500          l1_kh       1       0       1
         pp_378_l1       log    factor       2.253463        0.00001            500          l1_kh       1       0       1
         pp_379_l1       log    factor      0.3608670        0.00001            500          l1_kh       1       0       1
         pp_380_l1       log    factor      0.1450416        0.00001            500          l1_kh       1       0       1
         pp_381_l1       log    factor       2.628361        0.00001            500          l1_kh       1       0       1
         pp_382_l1       log    factor       2.471624        0.00001            500          l1_kh       1       0       1
         pp_383_l1       log    factor       1.532632        0.00001            500          l1_kh       1       0       1
         pp_384_l1       log    factor       4.889313        0.00001            500          l1_kh       1       0       1
         pp_387_l1       log    factor       2.816601        0.00001            500          l1_kh       1       0       1
         pp_388_l1       log    factor       4.382597        0.00001            500          l1_kh       1       0       1
         pp_389_l1       log    factor       3.326532        0.00001            500          l1_kh       1       0       1
         pp_390_l1       log    factor       2.190608        0.00001            500          l1_kh       1       0       1
         pp_392_l1       log    factor       1.917484        0.00001            500          l1_kh       1       0       1
         pp_394_l1       log    factor  6.7180239E-02        0.00001            500          l1_kh       1       0       1
         pp_396_l1       log    factor       3.318500        0.00001            500          l1_kh       1       0       1
         pp_397_l1       log    factor       1.778848        0.00001            500          l1_kh       1       0       1
         pp_398_l1       log    factor       6.181556        0.00001            500          l1_kh       1       0       1
         pp_399_l1       log    factor       12.38497        0.00001            500          l1_kh       1       0       1
         pp_401_l1       log    factor       3.564084        0.00001            500          l1_kh       1       0       1
         pp_402_l1       log    factor       1.909141        0.00001            500          l1_kh       1       0       1
         pp_403_l1       log    factor       11.60102        0.00001            500          l1_kh       1       0       1
         pp_404_l1       log    factor       500.0000        0.00001            500          l1_kh       1       0       1
         pp_406_l1       log    factor       1.708696        0.00001            500          l1_kh       1       0       1
         pp_407_l1       log    factor       20.63655        0.00001            500          l1_kh       1       0       1
         pp_409_l1       log    factor       2.340620        0.00001            500          l1_kh       1       0       1
         pp_410_l1       log    factor       3.109272        0.00001            500          l1_kh       1       0       1
         pp_411_l1       log    factor       2.792698        0.00001            500          l1_kh       1       0       1
         pp_412_l1       log    factor       1.183145        0.00001            500          l1_kh       1       0       1
         pp_417_l1       log    factor       2.018116        0.00001            500          l1_kh       1       0       1
         pp_419_l1       log    factor      0.9977412        0.00001            500          l1_kh       1       0       1
         pp_420_l1       log    factor       4.550548        0.00001            500          l1_kh       1       0       1
         pp_421_l1       log    factor       4.013160        0.00001            500          l1_kh       1       0       1
         pp_422_l1       log    factor       2.602689        0.00001            500          l1_kh       1       0       1
         pp_423_l1       log    factor       1.769265        0.00001            500          l1_kh       1       0       1
         pp_424_l1       log    factor       1.950688        0.00001            500          l1_kh       1       0       1
         pp_425_l1       log    factor       2.953219        0.00001            500          l1_kh       1       0       1
         pp_426_l1       log    factor       22.14611        0.00001            500          l1_kh       1       0       1
         pp_428_l1       log    factor       2.939556        0.00001            500          l1_kh       1       0       1
         pp_429_l1       log    factor       5.234728        0.00001            500          l1_kh       1       0       1
         pp_430_l1       log    factor       3.537419        0.00001            500          l1_kh       1       0       1
         pp_432_l1       log    factor       5.504931        0.00001            500          l1_kh       1       0       1
         pp_433_l1       log    factor       4.717869        0.00001            500          l1_kh       1       0       1
         pp_434_l1       log    factor       500.0000        0.00001            500          l1_kh       1       0       1
         pp_435_l1       log    factor       9.831301        0.00001            500          l1_kh       1       0       1
         pp_436_l1       log    factor       1.806698        0.00001            500          l1_kh       1       0       1
         pp_438_l1       log    factor      0.7870232        0.00001            500          l1_kh       1       0       1
         pp_442_l1       log    factor       4.449116        0.00001            500          l1_kh       1       0       1
         pp_444_l1       log    factor       3.123973        0.00001            500          l1_kh       1       0       1
         pp_445_l1       log    factor       1.863509        0.00001            500          l1_kh       1       0       1
         pp_446_l1       log    factor       2.682333        0.00001            500          l1_kh       1       0       1
         pp_447_l1       log    factor       2.646566        0.00001            500          l1_kh       1       0       1
         pp_448_l1       log    factor       2.353614        0.00001            500          l1_kh       1       0       1
         pp_450_l1       log    factor       3.133611        0.00001            500          l1_kh       1       0       1
         pp_455_l1       log    factor       1.334644        0.00001            500          l1_kh       1       0       1
         pp_456_l1       log    factor       5.156736        0.00001            500          l1_kh       1       0       1
         pp_458_l1       log    factor       500.0000        0.00001            500          l1_kh       1       0       1
         pp_459_l1       log    factor       1.790542        0.00001            500          l1_kh       1       0       1
         pp_460_l1       log    factor      0.3563226        0.00001            500          l1_kh       1       0       1
         pp_461_l1       log    factor       2.710187        0.00001            500          l1_kh       1       0       1
         pp_462_l1       log    factor       18.77250        0.00001            500          l1_kh       1       0       1
         pp_463_l1       log    factor       240.0161        0.00001            500          l1_kh       1       0       1
         pp_464_l1       log    factor      0.1071323        0.00001            500          l1_kh       1       0       1
         pp_466_l1       log    factor      0.9929299        0.00001            500          l1_kh       1       0       1
         pp_468_l1       log    factor       3.381582        0.00001            500          l1_kh       1       0       1
         pp_471_l1       log    factor       6.381399        0.00001            500          l1_kh       1       0       1