pcf
* control data
             restart          estimation
       409       212         9         0         4         0
         1         1              single               point         1         0         0          noobsreref
   2.000000E+01  -3.000000E+00   3.000000E-01   1.000000E-02        -7       999          lamforgive        noderforgive
   1.000000E+01   1.000000E+01   1.000000E-03         0         0
   1.000000E-01         1   1.100000E+00               noaui          nosenreuse        noboundscale
        30   1.000000E-02         3         3   1.000000E-02         3   0.000000E+00         1  -1.000000E+00
         0         0         0         0             jcosave          verboserec          jcosaveitn          reisaveitn          parsaveitn        noparsaverun
* singular value decomposition
         1
  10000000    1.000000E-06
1
* parameter groups
 upw_ks                  relative              1.0000000000E-02       0.0  always_3                2.0000000000E+00       parabolic             1.0000000000E-05      5.0000000000E-01       smaller              
 uzf_vks                 relative              1.0000000000E-02       0.0  always_3                2.0000000000E+00       parabolic             1.0000000000E-05      5.0000000000E-01       smaller              
 uzf_surfk               relative              1.0000000000E-02       0.0  always_3                2.0000000000E+00       parabolic             1.0000000000E-05      5.0000000000E-01       smaller              
 sfr_ks                  relative              1.0000000000E-02       0.0  always_3                2.0000000000E+00       parabolic             1.0000000000E-05      5.0000000000E-01       smaller              
 uzf_finf                relative              1.0000000000E-02       0.0  always_3                2.0000000000E+00       parabolic             1.0000000000E-05      5.0000000000E-01       smaller              
 upw_vka                 relative              1.0000000000E-02       0.0  always_3                2.0000000000E+00       parabolic             1.0000000000E-05      5.0000000000E-01       smaller              
 sfr_spil                relative              1.0000000000E-02       0.0  always_3                2.0000000000E+00       parabolic             1.0000000000E-05      5.0000000000E-01       smaller              
 lak_cd                  relative              1.0000000000E-02       0.0  always_3                2.0000000000E+00       parabolic             1.0000000000E-05      5.0000000000E-01       smaller              
 uzf_pet                 relative              1.0000000000E-02       0.0  always_3                2.0000000000E+00       parabolic             1.0000000000E-05      5.0000000000E-01       smaller              
* parameter data
 lak_cond_1             fixed                  factor                1.0000000000E+00      1.1000000000E-10      1.1000000000E+10       lak_cd                1.0000000000E+00      0.0000000000E+00      1          
 lak_cond_2             fixed                  factor                1.0000000000E+00      1.1000000000E-10      1.1000000000E+10       lak_cd                1.0000000000E+00      0.0000000000E+00      1          
 sfr_k_1                log                    factor                2.0410967000E-02      1.0000000000E-05      5.0000000000E+02       sfr_ks                1.0000000000E+00      0.0000000000E+00      1          
 sfr_k_2                log                    factor                1.6904406000E-01      1.0000000000E-05      5.0000000000E+02       sfr_ks                1.0000000000E+00      0.0000000000E+00      1          
 sfr_k_3                log                    factor                4.7722112000E-01      1.0000000000E-05      5.0000000000E+02       sfr_ks                1.0000000000E+00      0.0000000000E+00      1          
 sfr_k_4                log                    factor                6.4995009000E-02      1.0000000000E-05      5.0000000000E+02       sfr_ks                1.0000000000E+00      0.0000000000E+00      1          
 sfr_k_5                log                    factor                7.7833118000E-01      1.0000000000E-05      5.0000000000E+02       sfr_ks                1.0000000000E+00      0.0000000000E+00      1          
 sfr_k_6                log                    factor                3.5171592000E+00      1.0000000000E-05      5.0000000000E+02       sfr_ks                1.0000000000E+00      0.0000000000E+00      1          
 sfr_k_7                log                    factor                8.6954365000E-02      1.0000000000E-05      5.0000000000E+02       sfr_ks                1.0000000000E+00      0.0000000000E+00      1          
 sfr_k_8                log                    factor                1.5944494000E-01      1.0000000000E-05      5.0000000000E+02       sfr_ks                1.0000000000E+00      0.0000000000E+00      1          
 sfr_k_9                log                    factor                2.9816509000E-02      1.0000000000E-05      5.0000000000E+02       sfr_ks                1.0000000000E+00      0.0000000000E+00      1          
 sfr_k_10               log                    factor                8.0645075000E-02      1.0000000000E-05      5.0000000000E+02       sfr_ks                1.0000000000E+00      0.0000000000E+00      1          
 sfr_k_11               log                    factor                1.1404465000E-01      1.0000000000E-05      5.0000000000E+02       sfr_ks                1.0000000000E+00      0.0000000000E+00      1          
 sfr_k_12               log                    factor                3.2187720000E+01      1.0000000000E-05      5.0000000000E+02       sfr_ks                1.0000000000E+00      0.0000000000E+00      1          
 sfr_k_13               log                    factor                1.4799810000E-01      1.0000000000E-05      5.0000000000E+02       sfr_ks                1.0000000000E+00      0.0000000000E+00      1          
 sfr_k_14               log                    factor                2.3782811000E-02      1.0000000000E-05      5.0000000000E+02       sfr_ks                1.0000000000E+00      0.0000000000E+00      1          
 sfr_k_15               log                    factor                5.3844760000E-01      1.0000000000E-05      5.0000000000E+02       sfr_ks                1.0000000000E+00      0.0000000000E+00      1          
 sfr_k_16               log                    factor                6.2504987000E+00      1.0000000000E-05      5.0000000000E+02       sfr_ks                1.0000000000E+00      0.0000000000E+00      1          
 sfr_k_17               log                    factor                2.3001698000E+01      1.0000000000E-05      5.0000000000E+02       sfr_ks                1.0000000000E+00      0.0000000000E+00      1          
 sfr_k_18               log                    factor                4.9748633000E-02      1.0000000000E-05      5.0000000000E+02       sfr_ks                1.0000000000E+00      0.0000000000E+00      1          
 sfr_k_19               log                    factor                8.8713140000E-02      1.0000000000E-05      5.0000000000E+02       sfr_ks                1.0000000000E+00      0.0000000000E+00      1          
 sfr_k_20               log                    factor                5.0248065000E-01      1.0000000000E-05      5.0000000000E+02       sfr_ks                1.0000000000E+00      0.0000000000E+00      1          
 sfr_k_21               log                    factor                7.6397984000E-03      1.0000000000E-05      5.0000000000E+02       sfr_ks                1.0000000000E+00      0.0000000000E+00      1          
 sfr_k_22               log                    factor                7.7540967000E-01      1.0000000000E-05      5.0000000000E+02       sfr_ks                1.0000000000E+00      0.0000000000E+00      1          
 ks_1                   log                    factor                8.1288299000E-01      1.0000000000E-05      5.0000000000E+02       upw_ks                1.0000000000E+00      0.0000000000E+00      1          
 ks_2                   log                    factor                3.1130267000E-02      1.0000000000E-05      5.0000000000E+02       upw_ks                1.0000000000E+00      0.0000000000E+00      1          
 ks_3                   log                    factor                7.1635907000E-01      1.0000000000E-05      5.0000000000E+02       upw_ks                1.0000000000E+00      0.0000000000E+00      1          
 ks_4                   log                    factor                5.8586055000E+00      1.0000000000E-05      5.0000000000E+02       upw_ks                1.0000000000E+00      0.0000000000E+00      1          
 ks_5                   log                    factor                4.4418483000E+01      1.0000000000E-05      5.0000000000E+02       upw_ks                1.0000000000E+00      0.0000000000E+00      1          
 ks_6                   log                    factor                2.2103593000E+02      1.0000000000E-05      5.0000000000E+02       upw_ks                1.0000000000E+00      0.0000000000E+00      1          
 ks_7                   log                    factor                1.0464922000E-05      1.0000000000E-05      5.0000000000E+02       upw_ks                1.0000000000E+00      0.0000000000E+00      1          
 ks_8                   log                    factor                5.1373484000E+00      1.0000000000E-05      5.0000000000E+02       upw_ks                1.0000000000E+00      0.0000000000E+00      1          
 ks_9                   log                    factor                1.7528988000E+00      1.0000000000E-05      5.0000000000E+02       upw_ks                1.0000000000E+00      0.0000000000E+00      1          
 ks_10                  log                    factor                3.2326778000E-01      1.0000000000E-05      5.0000000000E+02       upw_ks                1.0000000000E+00      0.0000000000E+00      1          
 ks_11                  log                    factor                8.9509697000E+00      1.0000000000E-05      5.0000000000E+02       upw_ks                1.0000000000E+00      0.0000000000E+00      1          
 ks_12                  log                    factor                1.7358092000E+00      1.0000000000E-05      5.0000000000E+02       upw_ks                1.0000000000E+00      0.0000000000E+00      1          
 ks_13                  log                    factor                5.3510129000E+00      1.0000000000E-05      5.0000000000E+02       upw_ks                1.0000000000E+00      0.0000000000E+00      1          
 ks_14                  log                    factor                2.7227565000E+00      1.0000000000E-05      5.0000000000E+02       upw_ks                1.0000000000E+00      0.0000000000E+00      1          
 ks_15                  log                    factor                8.6210647000E+01      1.0000000000E-05      5.0000000000E+02       upw_ks                1.0000000000E+00      0.0000000000E+00      1          
 ks_16                  log                    factor                1.6695762000E+00      1.0000000000E-05      5.0000000000E+02       upw_ks                1.0000000000E+00      0.0000000000E+00      1          
 ks_17                  log                    factor                2.5269127000E+00      1.0000000000E-05      5.0000000000E+02       upw_ks                1.0000000000E+00      0.0000000000E+00      1          
 ks_18                  log                    factor                4.4723701000E+01      1.0000000000E-05      5.0000000000E+02       upw_ks                1.0000000000E+00      0.0000000000E+00      1          
 ks_19                  log                    factor                3.5608459000E-01      1.0000000000E-05      5.0000000000E+02       upw_ks                1.0000000000E+00      0.0000000000E+00      1          
 ks_20                  log                    factor                7.3398997000E-01      1.0000000000E-05      5.0000000000E+02       upw_ks                1.0000000000E+00      0.0000000000E+00      1          
 ks_21                  log                    factor                4.5049874000E-01      1.0000000000E-05      5.0000000000E+02       upw_ks                1.0000000000E+00      0.0000000000E+00      1          
 ks_22                  log                    factor                2.4977550000E+02      1.0000000000E-05      5.0000000000E+02       upw_ks                1.0000000000E+00      0.0000000000E+00      1          
 ks_23                  log                    factor                6.4397378000E-02      1.0000000000E-05      5.0000000000E+02       upw_ks                1.0000000000E+00      0.0000000000E+00      1          
 ks_24                  log                    factor                8.3631170000E-02      1.0000000000E-05      5.0000000000E+02       upw_ks                1.0000000000E+00      0.0000000000E+00      1          
 ks_25                  log                    factor                5.0000000000E+02      1.0000000000E-05      5.0000000000E+02       upw_ks                1.0000000000E+00      0.0000000000E+00      1          
 ks_26                  log                    factor                6.0525196000E-01      1.0000000000E-05      5.0000000000E+02       upw_ks                1.0000000000E+00      0.0000000000E+00      1          
 ks_27                  log                    factor                3.6309114000E-01      1.0000000000E-05      5.0000000000E+02       upw_ks                1.0000000000E+00      0.0000000000E+00      1          
 ks_28                  log                    factor                3.2697039000E+00      1.0000000000E-05      5.0000000000E+02       upw_ks                1.0000000000E+00      0.0000000000E+00      1          
 ks_29                  log                    factor                1.0045715000E-05      1.0000000000E-05      5.0000000000E+02       upw_ks                1.0000000000E+00      0.0000000000E+00      1          
 ks_30                  log                    factor                2.6402936000E+00      1.0000000000E-05      5.0000000000E+02       upw_ks                1.0000000000E+00      0.0000000000E+00      1          
 ks_31                  log                    factor                1.9979428000E-04      1.0000000000E-05      5.0000000000E+02       upw_ks                1.0000000000E+00      0.0000000000E+00      1          
 ks_32                  log                    factor                1.0309072000E-01      1.0000000000E-05      5.0000000000E+02       upw_ks                1.0000000000E+00      0.0000000000E+00      1          
 ks_33                  log                    factor                4.9021210000E+01      1.0000000000E-05      5.0000000000E+02       upw_ks                1.0000000000E+00      0.0000000000E+00      1          
 ks_34                  log                    factor                1.9639249000E-04      1.0000000000E-05      5.0000000000E+02       upw_ks                1.0000000000E+00      0.0000000000E+00      1          
 ks_35                  log                    factor                6.0314735000E-04      1.0000000000E-05      5.0000000000E+02       upw_ks                1.0000000000E+00      0.0000000000E+00      1          
 ks_36                  log                    factor                2.2559936000E-04      1.0000000000E-05      5.0000000000E+02       upw_ks                1.0000000000E+00      0.0000000000E+00      1          
 ks_37                  log                    factor                7.9557664000E-01      1.0000000000E-05      5.0000000000E+02       upw_ks                1.0000000000E+00      0.0000000000E+00      1          
 ks_38                  log                    factor                1.9583467000E-04      1.0000000000E-05      5.0000000000E+02       upw_ks                1.0000000000E+00      0.0000000000E+00      1          
 ks_39                  log                    factor                6.4925687000E+00      1.0000000000E-05      5.0000000000E+02       upw_ks                1.0000000000E+00      0.0000000000E+00      1          
 ks_40                  log                    factor                1.1427104000E+00      1.0000000000E-05      5.0000000000E+02       upw_ks                1.0000000000E+00      0.0000000000E+00      1          
 ks_41                  log                    factor                2.2751595000E+00      1.0000000000E-05      5.0000000000E+02       upw_ks                1.0000000000E+00      0.0000000000E+00      1          
 ks_42                  log                    factor                2.3523182000E-01      1.0000000000E-05      5.0000000000E+02       upw_ks                1.0000000000E+00      0.0000000000E+00      1          
 ks_43                  log                    factor                4.9156709000E-01      1.0000000000E-05      5.0000000000E+02       upw_ks                1.0000000000E+00      0.0000000000E+00      1          
 ks_44                  log                    factor                1.6118152000E-02      1.0000000000E-05      5.0000000000E+02       upw_ks                1.0000000000E+00      0.0000000000E+00      1          
 ks_45                  log                    factor                1.5939515000E+00      1.0000000000E-05      5.0000000000E+02       upw_ks                1.0000000000E+00      0.0000000000E+00      1          
 ks_46                  log                    factor                5.3738601000E+00      1.0000000000E-05      5.0000000000E+02       upw_ks                1.0000000000E+00      0.0000000000E+00      1          
 ks_47                  log                    factor                8.3774866000E+00      1.0000000000E-05      5.0000000000E+02       upw_ks                1.0000000000E+00      0.0000000000E+00      1          
 ks_48                  log                    factor                2.0774150000E-04      1.0000000000E-05      5.0000000000E+02       upw_ks                1.0000000000E+00      0.0000000000E+00      1          
 ks_49                  log                    factor                2.3996595000E+00      1.0000000000E-05      5.0000000000E+02       upw_ks                1.0000000000E+00      0.0000000000E+00      1          
 ks_50                  log                    factor                4.5867385000E-05      1.0000000000E-05      5.0000000000E+02       upw_ks                1.0000000000E+00      0.0000000000E+00      1          
 ks_51                  log                    factor                3.4408250000E-02      1.0000000000E-05      5.0000000000E+02       upw_ks                1.0000000000E+00      0.0000000000E+00      1          
 ks_52                  log                    factor                4.8462305000E+00      1.0000000000E-05      5.0000000000E+02       upw_ks                1.0000000000E+00      0.0000000000E+00      1          
 ks_53                  log                    factor                1.7738684000E-02      1.0000000000E-05      5.0000000000E+02       upw_ks                1.0000000000E+00      0.0000000000E+00      1          
 ks_54                  log                    factor                2.0860753000E+01      1.0000000000E-05      5.0000000000E+02       upw_ks                1.0000000000E+00      0.0000000000E+00      1          
 ks_55                  log                    factor                7.2850732000E+01      1.0000000000E-05      5.0000000000E+02       upw_ks                1.0000000000E+00      0.0000000000E+00      1          
 ks_56                  log                    factor                6.0447543000E+00      1.0000000000E-05      5.0000000000E+02       upw_ks                1.0000000000E+00      0.0000000000E+00      1          
 ks_57                  log                    factor                2.5423603000E-01      1.0000000000E-05      5.0000000000E+02       upw_ks                1.0000000000E+00      0.0000000000E+00      1          
 ks_58                  log                    factor                6.1718741000E-03      1.0000000000E-05      5.0000000000E+02       upw_ks                1.0000000000E+00      0.0000000000E+00      1          
 ks_59                  log                    factor                5.0429760000E+00      1.0000000000E-05      5.0000000000E+02       upw_ks                1.0000000000E+00      0.0000000000E+00      1          
 ks_60                  log                    factor                3.0363399000E-02      1.0000000000E-05      5.0000000000E+02       upw_ks                1.0000000000E+00      0.0000000000E+00      1          
 ks_61                  log                    factor                2.7767179000E-01      1.0000000000E-05      5.0000000000E+02       upw_ks                1.0000000000E+00      0.0000000000E+00      1          
 ks_62                  log                    factor                1.0573046000E+01      1.0000000000E-05      5.0000000000E+02       upw_ks                1.0000000000E+00      0.0000000000E+00      1          
 ks_63                  log                    factor                6.1781771000E-04      1.0000000000E-05      5.0000000000E+02       upw_ks                1.0000000000E+00      0.0000000000E+00      1          
 ks_64                  log                    factor                1.8933466000E-03      1.0000000000E-05      5.0000000000E+02       upw_ks                1.0000000000E+00      0.0000000000E+00      1          
 ks_65                  log                    factor                5.5266792000E+00      1.0000000000E-05      5.0000000000E+02       upw_ks                1.0000000000E+00      0.0000000000E+00      1          
 ks_66                  log                    factor                8.6992695000E+00      1.0000000000E-05      5.0000000000E+02       upw_ks                1.0000000000E+00      0.0000000000E+00      1          
 ks_67                  log                    factor                9.0695994000E-03      1.0000000000E-05      5.0000000000E+02       upw_ks                1.0000000000E+00      0.0000000000E+00      1          
 ks_68                  log                    factor                7.3830455000E-01      1.0000000000E-05      5.0000000000E+02       upw_ks                1.0000000000E+00      0.0000000000E+00      1          
 ks_69                  log                    factor                3.7687709000E+00      1.0000000000E-05      5.0000000000E+02       upw_ks                1.0000000000E+00      0.0000000000E+00      1          
 ks_70                  log                    factor                1.0000146000E-05      1.0000000000E-05      5.0000000000E+02       upw_ks                1.0000000000E+00      0.0000000000E+00      1          
 ks_71                  log                    factor                8.7686207000E-05      1.0000000000E-05      5.0000000000E+02       upw_ks                1.0000000000E+00      0.0000000000E+00      1          
 ks_72                  log                    factor                1.1277537000E-04      1.0000000000E-05      5.0000000000E+02       upw_ks                1.0000000000E+00      0.0000000000E+00      1          
 ks_73                  log                    factor                9.3314659000E-05      1.0000000000E-05      5.0000000000E+02       upw_ks                1.0000000000E+00      0.0000000000E+00      1          
 ks_74                  log                    factor                1.4164072000E-05      1.0000000000E-05      5.0000000000E+02       upw_ks                1.0000000000E+00      0.0000000000E+00      1          
 ks_75                  log                    factor                1.9218304000E-04      1.0000000000E-05      5.0000000000E+02       upw_ks                1.0000000000E+00      0.0000000000E+00      1          
 ks_76                  log                    factor                1.0227661000E-04      1.0000000000E-05      5.0000000000E+02       upw_ks                1.0000000000E+00      0.0000000000E+00      1          
 ks_77                  log                    factor                1.6187637000E-05      1.0000000000E-05      5.0000000000E+02       upw_ks                1.0000000000E+00      0.0000000000E+00      1          
 ks_78                  log                    factor                1.0020165000E-05      1.0000000000E-05      5.0000000000E+02       upw_ks                1.0000000000E+00      0.0000000000E+00      1          
 ks_79                  log                    factor                9.9834239000E-05      1.0000000000E-05      5.0000000000E+02       upw_ks                1.0000000000E+00      0.0000000000E+00      1          
 ks_80                  log                    factor                2.5319507000E+02      1.0000000000E-05      5.0000000000E+02       upw_ks                1.0000000000E+00      0.0000000000E+00      1          
 ks_81                  log                    factor                9.0834066000E-05      1.0000000000E-05      5.0000000000E+02       upw_ks                1.0000000000E+00      0.0000000000E+00      1          
 ks_82                  log                    factor                2.3017091000E+01      1.0000000000E-05      5.0000000000E+02       upw_ks                1.0000000000E+00      0.0000000000E+00      1          
 ks_83                  log                    factor                6.5732047000E+00      1.0000000000E-05      5.0000000000E+02       upw_ks                1.0000000000E+00      0.0000000000E+00      1          
 ks_84                  log                    factor                9.0505569000E-05      1.0000000000E-05      5.0000000000E+02       upw_ks                1.0000000000E+00      0.0000000000E+00      1          
 ks_85                  log                    factor                1.2939313000E-05      1.0000000000E-05      5.0000000000E+02       upw_ks                1.0000000000E+00      0.0000000000E+00      1          
 ks_86                  log                    factor                1.3227718000E-04      1.0000000000E-05      5.0000000000E+02       upw_ks                1.0000000000E+00      0.0000000000E+00      1          
 ks_87                  log                    factor                5.0000000000E+02      1.0000000000E-05      5.0000000000E+02       upw_ks                1.0000000000E+00      0.0000000000E+00      1          
 ks_88                  log                    factor                1.6463167000E+01      1.0000000000E-05      5.0000000000E+02       upw_ks                1.0000000000E+00      0.0000000000E+00      1          
 ks_89                  log                    factor                8.0247540000E-05      1.0000000000E-05      5.0000000000E+02       upw_ks                1.0000000000E+00      0.0000000000E+00      1          
 ks_90                  log                    factor                4.4840062000E+00      1.0000000000E-05      5.0000000000E+02       upw_ks                1.0000000000E+00      0.0000000000E+00      1          
 ks_91                  log                    factor                1.4463433000E+01      1.0000000000E-05      5.0000000000E+02       upw_ks                1.0000000000E+00      0.0000000000E+00      1          
 ks_92                  log                    factor                1.1422804000E-04      1.0000000000E-05      5.0000000000E+02       upw_ks                1.0000000000E+00      0.0000000000E+00      1          
 ks_93                  log                    factor                4.1473064000E-02      1.0000000000E-05      5.0000000000E+02       upw_ks                1.0000000000E+00      0.0000000000E+00      1          
 ks_94                  log                    factor                3.1960970000E-05      1.0000000000E-05      5.0000000000E+02       upw_ks                1.0000000000E+00      0.0000000000E+00      1          
 ks_95                  log                    factor                1.0001171000E-04      1.0000000000E-05      5.0000000000E+02       upw_ks                1.0000000000E+00      0.0000000000E+00      1          
 ks_96                  log                    factor                1.7294100000E-04      1.0000000000E-05      5.0000000000E+02       upw_ks                1.0000000000E+00      0.0000000000E+00      1          
 ks_97                  log                    factor                5.5192187000E-05      1.0000000000E-05      5.0000000000E+02       upw_ks                1.0000000000E+00      0.0000000000E+00      1          
 ks_98                  log                    factor                1.1459029000E-04      1.0000000000E-05      5.0000000000E+02       upw_ks                1.0000000000E+00      0.0000000000E+00      1          
 ks_99                  log                    factor                1.0655660000E-04      1.0000000000E-05      5.0000000000E+02       upw_ks                1.0000000000E+00      0.0000000000E+00      1          
 ks_100                 log                    factor                1.0000089000E-05      1.0000000000E-05      5.0000000000E+02       upw_ks                1.0000000000E+00      0.0000000000E+00      1          
 ks_101                 log                    factor                8.4329517000E-04      1.0000000000E-05      5.0000000000E+02       upw_ks                1.0000000000E+00      0.0000000000E+00      1          
 ks_102                 log                    factor                7.9634062000E-05      1.0000000000E-05      5.0000000000E+02       upw_ks                1.0000000000E+00      0.0000000000E+00      1          
 ks_103                 log                    factor                4.2478851000E-04      1.0000000000E-05      5.0000000000E+02       upw_ks                1.0000000000E+00      0.0000000000E+00      1          