pcf
* control data
             restart          estimation
       409       212         9         0         4
         1         1              single               point
   2.000000E+01  -3.000000E+00   3.000000E-01   1.000000E-02        -7
   1.000000E+01   1.000000E+01   1.000000E-03
   1.000000E-01
        30   1.000000E-02         3         3   1.000000E-02         3
         0         0         0
* singular value decomposition
         1
  10000000    1.000000E-06
1
* parameter groups
upw_ks                 relative              1.0000000000E-02      0.0 switch                2.0000000000E+00      parabolic             1.0000000000E-05      5.0000000000E-01      smaller              
uzf_vks                relative              1.0000000000E-02      0.0 switch                2.0000000000E+00      parabolic             1.0000000000E-05      5.0000000000E-01      smaller              
uzf_surfk              relative              1.0000000000E-02      0.0 switch                2.0000000000E+00      parabolic             1.0000000000E-05      5.0000000000E-01      smaller              
sfr_ks                 relative              1.0000000000E-02      0.0 switch                2.0000000000E+00      parabolic             1.0000000000E-05      5.0000000000E-01      smaller              
uzf_finf               relative              1.0000000000E-02      0.0 switch                2.0000000000E+00      parabolic             1.0000000000E-05      5.0000000000E-01      smaller              
upw_vka                relative              1.0000000000E-02      0.0 switch                2.0000000000E+00      parabolic             1.0000000000E-05      5.0000000000E-01      smaller              
sfr_spil               relative              1.0000000000E-02      0.0 switch                2.0000000000E+00      parabolic             1.0000000000E-05      5.0000000000E-01      smaller              
lak_cd                 relative              1.0000000000E-02      0.0 switch                2.0000000000E+00      parabolic             1.0000000000E-05      5.0000000000E-01      smaller              
uzf_pet                relative              1.0000000000E-02      0.0 switch                2.0000000000E+00      parabolic             1.0000000000E-05      5.0000000000E-01      smaller              
* parameter data
finf_1                none                  factor                4.8303529982E-01      1.0000000000E-02      1.0000000000E+00      uzf_finf              1.0000000000E+00      0.0000000000E+00      1          
finf_10               none                  factor                4.7250465476E-01      1.0000000000E-02      1.0000000000E+00      uzf_finf              1.0000000000E+00      0.0000000000E+00      1          
finf_11               none                  factor                4.7250465241E-01      1.0000000000E-02      1.0000000000E+00      uzf_finf              1.0000000000E+00      0.0000000000E+00      1          
finf_12               none                  factor                4.7250465181E-01      1.0000000000E-02      1.0000000000E+00      uzf_finf              1.0000000000E+00      0.0000000000E+00      1          
finf_13               none                  factor                4.7250462539E-01      1.0000000000E-02      1.0000000000E+00      uzf_finf              1.0000000000E+00      0.0000000000E+00      1          
finf_14               none                  factor                4.8303530170E-01      1.0000000000E-02      1.0000000000E+00      uzf_finf              1.0000000000E+00      0.0000000000E+00      1          
finf_15               none                  factor                4.8303530028E-01      1.0000000000E-02      1.0000000000E+00      uzf_finf              1.0000000000E+00      0.0000000000E+00      1          
finf_16               none                  factor                4.8303530031E-01      1.0000000000E-02      1.0000000000E+00      uzf_finf              1.0000000000E+00      0.0000000000E+00      1          
finf_17               none                  factor                4.8303529591E-01      1.0000000000E-02      1.0000000000E+00      uzf_finf              1.0000000000E+00      0.0000000000E+00      1          
finf_18               none                  factor                4.8303530009E-01      1.0000000000E-02      1.0000000000E+00      uzf_finf              1.0000000000E+00      0.0000000000E+00      1          
finf_19               none                  factor                4.8303530174E-01      1.0000000000E-02      1.0000000000E+00      uzf_finf              1.0000000000E+00      0.0000000000E+00      1          
finf_2                none                  factor                4.8303529923E-01      1.0000000000E-02      1.0000000000E+00      uzf_finf              1.0000000000E+00      0.0000000000E+00      1          
finf_20               none                  factor                5.2846194112E-01      1.0000000000E-02      1.0000000000E+00      uzf_finf              1.0000000000E+00      0.0000000000E+00      1          
finf_21               none                  factor                4.8303530068E-01      1.0000000000E-02      1.0000000000E+00      uzf_finf              1.0000000000E+00      0.0000000000E+00      1          
finf_22               none                  factor                4.8303530399E-01      1.0000000000E-02      1.0000000000E+00      uzf_finf              1.0000000000E+00      0.0000000000E+00      1          
finf_3                none                  factor                4.8303530452E-01      1.0000000000E-02      1.0000000000E+00      uzf_finf              1.0000000000E+00      0.0000000000E+00      1          
finf_4                none                  factor                4.1058000644E-01      1.0000000000E-02      1.0000000000E+00      uzf_finf              1.0000000000E+00      0.0000000000E+00      1          
finf_5                none                  factor                4.1058000575E-01      1.0000000000E-02      1.0000000000E+00      uzf_finf              1.0000000000E+00      0.0000000000E+00      1          
finf_6                none                  factor                4.8303529933E-01      1.0000000000E-02      1.0000000000E+00      uzf_finf              1.0000000000E+00      0.0000000000E+00      1          
finf_7                none                  factor                4.7250465321E-01      1.0000000000E-02      1.0000000000E+00      uzf_finf              1.0000000000E+00      0.0000000000E+00      1          
finf_8                none                  factor                4.7250465031E-01      1.0000000000E-02      1.0000000000E+00      uzf_finf              1.0000000000E+00      0.0000000000E+00      1          
finf_9                none                  factor                4.7250464813E-01      1.0000000000E-02      1.0000000000E+00      uzf_finf              1.0000000000E+00      0.0000000000E+00      1          
ks_1                  log                   factor                8.1281465292E-01      1.0000000000E-05      5.0000000000E+02      upw_ks                1.0000000000E+00      0.0000000000E+00      1          
ks_10                 log                   factor                1.7665358782E+00      1.0000000000E-05      5.0000000000E+02      upw_ks                1.0000000000E+00      0.0000000000E+00      1          
ks_100                log                   factor                1.0000128896E-05      1.0000000000E-05      5.0000000000E+02      upw_ks                1.0000000000E+00      0.0000000000E+00      1          
ks_101                log                   factor                8.4329518722E-04      1.0000000000E-05      5.0000000000E+02      upw_ks                1.0000000000E+00      0.0000000000E+00      1          
ks_102                log                   factor                7.9634068243E-05      1.0000000000E-05      5.0000000000E+02      upw_ks                1.0000000000E+00      0.0000000000E+00      1          
ks_103                log                   factor                4.3762609130E-04      1.0000000000E-05      5.0000000000E+02      upw_ks                1.0000000000E+00      0.0000000000E+00      1          
ks_104                log                   factor                1.0000000657E-05      1.0000000000E-05      5.0000000000E+02      upw_ks                1.0000000000E+00      0.0000000000E+00      1          
ks_105                log                   factor                1.0132600437E-05      1.0000000000E-05      5.0000000000E+02      upw_ks                1.0000000000E+00      0.0000000000E+00      1          
ks_106                log                   factor                1.4513300266E-04      1.0000000000E-05      5.0000000000E+02      upw_ks                1.0000000000E+00      0.0000000000E+00      1          
ks_107                log                   factor                3.1329391641E-04      1.0000000000E-05      5.0000000000E+02      upw_ks                1.0000000000E+00      0.0000000000E+00      1          
ks_108                log                   factor                4.3405766487E+00      1.0000000000E-05      5.0000000000E+02      upw_ks                1.0000000000E+00      0.0000000000E+00      1          
ks_109                log                   factor                6.8872070312E+00      1.0000000000E-05      5.0000000000E+02      upw_ks                1.0000000000E+00      0.0000000000E+00      1          
ks_11                 log                   factor                3.2307365537E-01      1.0000000000E-05      5.0000000000E+02      upw_ks                1.0000000000E+00      0.0000000000E+00      1          
ks_110                log                   factor                3.9318954945E+00      1.0000000000E-05      5.0000000000E+02      upw_ks                1.0000000000E+00      0.0000000000E+00      1          
ks_111                log                   factor                4.8488140106E+00      1.0000000000E-05      5.0000000000E+02      upw_ks                1.0000000000E+00      0.0000000000E+00      1          
ks_112                log                   factor                3.1346395016E+00      1.0000000000E-05      5.0000000000E+02      upw_ks                1.0000000000E+00      0.0000000000E+00      1          
ks_113                log                   factor                1.0639621019E+00      1.0000000000E-05      5.0000000000E+02      upw_ks                1.0000000000E+00      0.0000000000E+00      1          
ks_114                log                   factor                7.7576918602E+00      1.0000000000E-05      5.0000000000E+02      upw_ks                1.0000000000E+00      0.0000000000E+00      1          
ks_115                log                   factor                6.4252519608E+00      1.0000000000E-05      5.0000000000E+02      upw_ks                1.0000000000E+00      0.0000000000E+00      1          
ks_116                log                   factor                3.9887300134E-01      1.0000000000E-05      5.0000000000E+02      upw_ks                1.0000000000E+00      0.0000000000E+00      1          
ks_117                log                   factor                1.3409948349E+01      1.0000000000E-05      5.0000000000E+02      upw_ks                1.0000000000E+00      0.0000000000E+00      1          
ks_118                log                   factor                2.0380780697E+00      1.0000000000E-05      5.0000000000E+02      upw_ks                1.0000000000E+00      0.0000000000E+00      1          
ks_119                log                   factor                1.0455908775E+01      1.0000000000E-05      5.0000000000E+02      upw_ks                1.0000000000E+00      0.0000000000E+00      1          
ks_12                 log                   factor                8.9508028030E+00      1.0000000000E-05      5.0000000000E+02      upw_ks                1.0000000000E+00      0.0000000000E+00      1          
ks_120                log                   factor                1.5999339521E-01      1.0000000000E-05      5.0000000000E+02      upw_ks                1.0000000000E+00      0.0000000000E+00      1          
ks_121                log                   factor                2.1469819546E+00      1.0000000000E-05      5.0000000000E+02      upw_ks                1.0000000000E+00      0.0000000000E+00      1          
ks_122                log                   factor                3.8488460541E+01      1.0000000000E-05      5.0000000000E+02      upw_ks                1.0000000000E+00      0.0000000000E+00      1          
ks_123                log                   factor                1.1217680931E+01      1.0000000000E-05      5.0000000000E+02      upw_ks                1.0000000000E+00      0.0000000000E+00      1          
ks_124                log                   factor                2.0072522163E+00      1.0000000000E-05      5.0000000000E+02      upw_ks                1.0000000000E+00      0.0000000000E+00      1          
ks_125                log                   factor                5.0000000000E+02      1.0000000000E-05      5.0000000000E+02      upw_ks                1.0000000000E+00      0.0000000000E+00      1          
ks_126                log                   factor                5.0000000000E+02      1.0000000000E-05      5.0000000000E+02      upw_ks                1.0000000000E+00      0.0000000000E+00      1          
ks_127                log                   factor                1.9517050982E+00      1.0000000000E-05      5.0000000000E+02      upw_ks                1.0000000000E+00      0.0000000000E+00      1          
ks_128                log                   factor                3.3627891541E+00      1.0000000000E-05      5.0000000000E+02      upw_ks                1.0000000000E+00      0.0000000000E+00      1          
ks_129                log                   factor                5.9929218292E+00      1.0000000000E-05      5.0000000000E+02      upw_ks                1.0000000000E+00      0.0000000000E+00      1          
ks_13                 log                   factor                1.7358056307E+00      1.0000000000E-05      5.0000000000E+02      upw_ks                1.0000000000E+00      0.0000000000E+00      1          
ks_130                log                   factor                1.4311889648E+01      1.0000000000E-05      5.0000000000E+02      upw_ks                1.0000000000E+00      0.0000000000E+00      1          
ks_131                log                   factor                2.0119421242E-04      1.0000000000E-05      5.0000000000E+02      upw_ks                1.0000000000E+00      0.0000000000E+00      1          
ks_132                log                   factor                2.0018020587E-04      1.0000000000E-05      5.0000000000E+02      upw_ks                1.0000000000E+00      0.0000000000E+00      1          
ks_133                log                   factor                2.0199299615E-04      1.0000000000E-05      5.0000000000E+02      upw_ks                1.0000000000E+00      0.0000000000E+00      1          
ks_134                log                   factor                2.6291180402E-02      1.0000000000E-05      5.0000000000E+02      upw_ks                1.0000000000E+00      0.0000000000E+00      1          
ks_135                log                   factor                1.5870727657E-04      1.0000000000E-05      5.0000000000E+02      upw_ks                1.0000000000E+00      0.0000000000E+00      1          
ks_136                log                   factor                2.9104665737E-04      1.0000000000E-05      5.0000000000E+02      upw_ks                1.0000000000E+00      0.0000000000E+00      1          
ks_137                log                   factor                4.1906582192E-03      1.0000000000E-05      5.0000000000E+02      upw_ks                1.0000000000E+00      0.0000000000E+00      1          
ks_138                log                   factor                6.3052964211E+00      1.0000000000E-05      5.0000000000E+02      upw_ks                1.0000000000E+00      0.0000000000E+00      1          
ks_139                log                   factor                2.2886168153E-04      1.0000000000E-05      5.0000000000E+02      upw_ks                1.0000000000E+00      0.0000000000E+00      1          
ks_14                 log                   factor                4.5411601067E+00      1.0000000000E-05      5.0000000000E+02      upw_ks                1.0000000000E+00      0.0000000000E+00      1          
ks_140                log                   factor                1.4530610085E+01      1.0000000000E-05      5.0000000000E+02      upw_ks                1.0000000000E+00      0.0000000000E+00      1          
ks_141                log                   factor                1.9782652089E-04      1.0000000000E-05      5.0000000000E+02      upw_ks                1.0000000000E+00      0.0000000000E+00      1          
ks_142                log                   factor                1.9989229622E-04      1.0000000000E-05      5.0000000000E+02      upw_ks                1.0000000000E+00      0.0000000000E+00      1          
ks_143                log                   factor                1.7434179317E-03      1.0000000000E-05      5.0000000000E+02      upw_ks                1.0000000000E+00      0.0000000000E+00      1          
ks_144                log                   factor                1.0098478794E+00      1.0000000000E-05      5.0000000000E+02      upw_ks                1.0000000000E+00      0.0000000000E+00      1          
ks_145                log                   factor                2.9037479401E+01      1.0000000000E-05      5.0000000000E+02      upw_ks                1.0000000000E+00      0.0000000000E+00      1          
ks_146                log                   factor                5.7339210510E+00      1.0000000000E-05      5.0000000000E+02      upw_ks                1.0000000000E+00      0.0000000000E+00      1          
ks_147                log                   factor                4.0624456406E+00      1.0000000000E-05      5.0000000000E+02      upw_ks                1.0000000000E+00      0.0000000000E+00      1          
ks_148                log                   factor                5.9980759621E+00      1.0000000000E-05      5.0000000000E+02      upw_ks                1.0000000000E+00      0.0000000000E+00      1          
ks_149                log                   factor                2.6408210397E-04      1.0000000000E-05      5.0000000000E+02      upw_ks                1.0000000000E+00      0.0000000000E+00      1          
ks_15                 log                   factor                2.7222614288E+00      1.0000000000E-05      5.0000000000E+02      upw_ks                1.0000000000E+00      0.0000000000E+00      1          
ks_150                log                   factor                7.2223734856E+00      1.0000000000E-05      5.0000000000E+02      upw_ks                1.0000000000E+00      0.0000000000E+00      1          
ks_151                log                   factor                6.0058846474E+00      1.0000000000E-05      5.0000000000E+02      upw_ks                1.0000000000E+00      0.0000000000E+00      1          
ks_152                log                   factor                9.7549967468E-02      1.0000000000E-05      5.0000000000E+02      upw_ks                1.0000000000E+00      0.0000000000E+00      1          
ks_153                log                   factor                3.7121829987E+01      1.0000000000E-05      5.0000000000E+02      upw_ks                1.0000000000E+00      0.0000000000E+00      1          
ks_154                log                   factor                5.6570854187E+01      1.0000000000E-05      5.0000000000E+02      upw_ks                1.0000000000E+00      0.0000000000E+00      1          
ks_155                log                   factor                1.9576218619E-04      1.0000000000E-05      5.0000000000E+02      upw_ks                1.0000000000E+00      0.0000000000E+00      1          
ks_156                log                   factor                1.8501792848E-01      1.0000000000E-05      5.0000000000E+02      upw_ks                1.0000000000E+00      0.0000000000E+00      1          
ks_157                log                   factor                1.9098758698E-01      1.0000000000E-05      5.0000000000E+02      upw_ks                1.0000000000E+00      0.0000000000E+00      1          
ks_158                log                   factor                6.2491738796E-01      1.0000000000E-05      5.0000000000E+02      upw_ks                1.0000000000E+00      0.0000000000E+00      1          
ks_159                log                   factor                2.6778699830E-02      1.0000000000E-05      5.0000000000E+02      upw_ks                1.0000000000E+00      0.0000000000E+00      1          
ks_16                 log                   factor                5.0000000000E+02      1.0000000000E-05      5.0000000000E+02      upw_ks                1.0000000000E+00      0.0000000000E+00      1          
ks_160                log                   factor                1.0304108858E+00      1.0000000000E-05      5.0000000000E+02      upw_ks                1.0000000000E+00      0.0000000000E+00      1          
ks_161                log                   factor                2.8025802612E+02      1.0000000000E-05      5.0000000000E+02      upw_ks                1.0000000000E+00      0.0000000000E+00      1          
ks_162                log                   factor                1.8666388094E-01      1.0000000000E-05      5.0000000000E+02      upw_ks                1.0000000000E+00      0.0000000000E+00      1          
ks_163                log                   factor                6.8794958293E-02      1.0000000000E-05      5.0000000000E+02      upw_ks                1.0000000000E+00      0.0000000000E+00      1          
ks_164                log                   factor                5.4530251771E-02      1.0000000000E-05      5.0000000000E+02      upw_ks                1.0000000000E+00      0.0000000000E+00      1          
ks_165                log                   factor                6.2149119377E+00      1.0000000000E-05      5.0000000000E+02      upw_ks                1.0000000000E+00      0.0000000000E+00      1          
ks_166                log                   factor                1.5650667250E-02      1.0000000000E-05      5.0000000000E+02      upw_ks                1.0000000000E+00      0.0000000000E+00      1          
ks_167                log                   factor                3.7984412163E-02      1.0000000000E-05      5.0000000000E+02      upw_ks                1.0000000000E+00      0.0000000000E+00      1          
ks_168                log                   factor                1.2542651594E-01      1.0000000000E-05      5.0000000000E+02      upw_ks                1.0000000000E+00      0.0000000000E+00      1          
ks_169                log                   factor                2.6341617922E-04      1.0000000000E-05      5.0000000000E+02      upw_ks                1.0000000000E+00      0.0000000000E+00      1          
ks_17                 log                   factor                1.6695759296E+00      1.0000000000E-05      5.0000000000E+02      upw_ks                1.0000000000E+00      0.0000000000E+00      1          
ks_170                log                   factor                2.0338722970E-03      1.0000000000E-05      5.0000000000E+02      upw_ks                1.0000000000E+00      0.0000000000E+00      1          
ks_171                log                   factor                1.0889400244E+00      1.0000000000E-05      5.0000000000E+02      upw_ks                1.0000000000E+00      0.0000000000E+00      1          
ks_172                log                   factor                1.9197836518E-02      1.0000000000E-05      5.0000000000E+02      upw_ks                1.0000000000E+00      0.0000000000E+00      1          
ks_173                log                   factor                8.0006988719E-03      1.0000000000E-05      5.0000000000E+02      upw_ks                1.0000000000E+00      0.0000000000E+00      1          
ks_174                log                   factor                5.8449282646E+00      1.0000000000E-05      5.0000000000E+02      upw_ks                1.0000000000E+00      0.0000000000E+00      1          
ks_175                log                   factor                1.2517499924E-01      1.0000000000E-05      5.0000000000E+02      upw_ks                1.0000000000E+00      0.0000000000E+00      1          
ks_176                log                   factor                4.5434264466E-03      1.0000000000E-05      5.0000000000E+02      upw_ks                1.0000000000E+00      0.0000000000E+00      1          
ks_177                log                   factor                1.1086478233E+00      1.0000000000E-05      5.0000000000E+02      upw_ks                1.0000000000E+00      0.0000000000E+00      1          
ks_178                log                   factor                2.0081980620E-04      1.0000000000E-05      5.0000000000E+02      upw_ks                1.0000000000E+00      0.0000000000E+00      1          
ks_179                log                   factor                2.0706861019E+00      1.0000000000E-05      5.0000000000E+02      upw_ks                1.0000000000E+00      0.0000000000E+00      1          
ks_18                 log                   factor                2.5269129276E+00      1.0000000000E-05      5.0000000000E+02      upw_ks                1.0000000000E+00      0.0000000000E+00      1          
ks_180                log                   factor                1.9086308384E-05      1.0000000000E-05      5.0000000000E+02      upw_ks                1.0000000000E+00      0.0000000000E+00      1          
ks_181                log                   factor                3.1532025337E-01      1.0000000000E-05      5.0000000000E+02      upw_ks                1.0000000000E+00      0.0000000000E+00      1          
ks_182                log                   factor                4.8530063629E+00      1.0000000000E-05      5.0000000000E+02      upw_ks                1.0000000000E+00      0.0000000000E+00      1          
ks_183                log                   factor                9.6277737617E-01      1.0000000000E-05      5.0000000000E+02      upw_ks                1.0000000000E+00      0.0000000000E+00      1          
ks_184                log                   factor                4.0349530173E-04      1.0000000000E-05      5.0000000000E+02      upw_ks                1.0000000000E+00      0.0000000000E+00      1          
ks_185                log                   factor                9.5591247373E-05      1.0000000000E-05      5.0000000000E+02      upw_ks                1.0000000000E+00      0.0000000000E+00      1          
ks_186                log                   factor                9.8258926300E-05      1.0000000000E-05      5.0000000000E+02      upw_ks                1.0000000000E+00      0.0000000000E+00      1          
ks_187                log                   factor                1.0939140338E-04      1.0000000000E-05      5.0000000000E+02      upw_ks                1.0000000000E+00      0.0000000000E+00      1          
ks_188                log                   factor                3.9367625141E-04      1.0000000000E-05      5.0000000000E+02      upw_ks                1.0000000000E+00      0.0000000000E+00      1          
ks_189                log                   factor                1.1232763063E-04      1.0000000000E-05      5.0000000000E+02      upw_ks                1.0000000000E+00      0.0000000000E+00      1          
ks_19                 log                   factor                4.4723697662E+01      1.0000000000E-05      5.0000000000E+02      upw_ks                1.0000000000E+00      0.0000000000E+00      1          
ks_190                log                   factor                1.0000098882E-05      1.0000000000E-05      5.0000000000E+02      upw_ks                1.0000000000E+00      0.0000000000E+00      1          
ks_191                log                   factor                1.0094838944E-04      1.0000000000E-05      5.0000000000E+02      upw_ks                1.0000000000E+00      0.0000000000E+00      1          
ks_192                log                   factor                1.2870749924E-04      1.0000000000E-05      5.0000000000E+02      upw_ks                1.0000000000E+00      0.0000000000E+00      1          
ks_193                log                   factor                1.0000000000E-05      1.0000000000E-05      5.0000000000E+02      upw_ks                1.0000000000E+00      0.0000000000E+00      1          
ks_194                log                   factor                1.0056241990E-05      1.0000000000E-05      5.0000000000E+02      upw_ks                1.0000000000E+00      0.0000000000E+00      1          
ks_195                log                   factor                7.7565066749E-04      1.0000000000E-05      5.0000000000E+02      upw_ks                1.0000000000E+00      0.0000000000E+00      1          
ks_196                log                   factor                1.0008217942E-05      1.0000000000E-05      5.0000000000E+02      upw_ks                1.0000000000E+00      0.0000000000E+00      1          
ks_197                log                   factor                1.3109600695E-04      1.0000000000E-05      5.0000000000E+02      upw_ks                1.0000000000E+00      0.0000000000E+00      1          