# HFB6 package for MODFLOW-NWT generated by Flopy 3.3.5
         0         0      2103
         1       244       116       244       115           10
         2       244       116       244       115           10
         3       244       116       244       115           10
         1       245       116       244       116           10
         2       245       116       244       116           10
         3       245       116       244       116           10
         1       245       117       245       116           10
         2       245       117       245       116           10
         3       245       117       245       116           10
         1       246       117       245       117           10
         2       246       117       245       117           10
         3       246       117       245       117           10
         1       246       118       246       117           10
         2       246       118       246       117           10
         3       246       118       246       117           10
         1       247       118       247       117           10
         2       247       118       247       117           10
         3       247       118       247       117           10
         1       248       118       247       118           10
         2       248       118       247       118           10
         3       248       118       247       118           10
         1       248       119       248       118           10
         2       248       119       248       118           10
         3       248       119       248       118           10
         1       249       119       248       119           10
         2       249       119       248       119           10
         3       249       119       248       119           10
         1       249       120       249       119           10
         2       249       120       249       119           10
         3       249       120       249       119           10
         1       250       120       250       119           10
         2       250       120       250       119           10
         3       250       120       250       119           10
         1       251       120       250       120           10
         2       251       120       250       120           10
         3       251       120       250       120           10
         1       251       121       251       120           10
         2       251       121       251       120           10
         3       251       121       251       120           10
         1       252       121       251       121           10
         2       252       121       251       121           10
         3       252       121       251       121           10
         1       252       122       252       121           10
         2       252       122       252       121           10
         3       252       122       252       121           10
         1       253       122       253       121           10
         2       253       122       253       121           10
         3       253       122       253       121           10
         1       254       122       253       122           10
         2       254       122       253       122           10
         3       254       122       253       122           10
         1       254       123       254       122           10
         2       254       123       254       122           10
         3       254       123       254       122           10
         1       255       123       254       123           10
         2       255       123       254       123           10
         3       255       123       254       123           10
         1       255       124       255       123           10
         2       255       124       255       123           10
         3       255       124       255       123           10
         1       256       124       256       123           10
         2       256       124       256       123           10
         3       256       124       256       123           10
         1       257       124       256       124           10
         2       257       124       256       124           10
         3       257       124       256       124           10
         1       257       125       257       124           10
         2       257       125       257       124           10
         3       257       125       257       124           10
         1       258       125       257       125           10
         2       258       125       257       125           10
         3       258       125       257       125           10
         1       258       126       258       125           10
         2       258       126       258       125           10
         3       258       126       258       125           10
         1       259       126       258       126           10
         2       259       126       258       126           10
         3       259       126       258       126           10
         1       259       127       259       126           10
         2       259       127       259       126           10
         3       259       127       259       126           10
         1       260       127       259       127           10
         2       260       127       259       127           10
         3       260       127       259       127           10
         1       260       128       260       127           10
         2       260       128       260       127           10
         3       260       128       260       127           10
         1       261       128       260       128           10
         2       261       128       260       128           10
         3       261       128       260       128           10
         1       261       129       261       128           10
         2       261       129       261       128           10
         3       261       129       261       128           10
         1       262       129       261       129           10
         2       262       129       261       129           10
         3       262       129       261       129           10
         1       262       130       262       129           10
         2       262       130       262       129           10
         3       262       130       262       129           10
         1       263       127       263       126           10
         2       263       127       263       126           10
         3       263       127       263       126           10
         1       263       130       262       130           10
         2       263       130       262       130           10
         3       263       130       262       130           10
         1       263       131       263       130           10
         2       263       131       263       130           10
         3       263       131       263       130           10
         1       264       127       263       127           10
         2       264       127       263       127           10
         3       264       127       263       127           10
         1       264       128       264       127           10
         2       264       128       264       127           10
         3       264       128       264       127           10
         1       264       131       263       131           10
         2       264       131       263       131           10
         3       264       131       263       131           10
         1       264       132       264       131           10
         2       264       132       264       131           10
         3       264       132       264       131           10
         1       264       135       263       135           10
         2       264       135       263       135           10
         3       264       135       263       135           10
         1       264       136       264       135           10
         2       264       136       264       135           10
         3       264       136       264       135           10
         1       265       128       264       128           10
         2       265       128       264       128           10
         3       265       128       264       128           10
         1       265       129       265       128           10
         2       265       129       265       128           10
         3       265       129       265       128           10
         1       265       132       264       132           10
         2       265       132       264       132           10
         3       265       132       264       132           10
         1       265       133       265       132           10
         2       265       133       265       132           10
         3       265       133       265       132           10
         1       265       136       264       136           10
         2       265       136       264       136           10
         3       265       136       264       136           10
         1       265       137       264       137           10
         2       265       137       264       137           10
         3       265       137       264       137           10
         1       265       138       265       137           10
         2       265       138       265       137           10
         3       265       138       265       137           10
         1       266       129       266       128           10
         2       266       129       266       128           10
         3       266       129       266       128           10
         1       266       133       265       133           10
         2       266       133       265       133           10
         3       266       133       265       133           10
         1       266       134       266       133           10
         2       266       134       266       133           10
         3       266       134       266       133           10
         1       266       138       265       138           10
         2       266       138       265       138           10
         3       266       138       265       138           10
         1       266       139       265       139           10
         2       266       139       265       139           10
         3       266       139       265       139           10
         1       266       140       266       139           10
         2       266       140       266       139           10
         3       266       140       266       139           10
         1       267       129       266       129           10
         2       267       129       266       129           10
         3       267       129       266       129           10
         1       267       130       267       129           10
         2       267       130       267       129           10
         3       267       130       267       129           10
         1       267       134       266       134           10
         2       267       134       266       134           10
         3       267       134       266       134           10
         1       267       135       267       134           10
         2       267       135       267       134           10
         3       267       135       267       134           10
         1       267       140       266       140           10
         2       267       140       266       140           10
         3       267       140       266       140           10
         1       267       141       267       140           10
         2       267       141       267       140           10
         3       267       141       267       140           10
         1       268       130       267       130           10
         2       268       130       267       130           10
         3       268       130       267       130           10
         1       268       131       268       130           10
         2       268       131       268       130           10
         3       268       131       268       130           10
         1       268       135       267       135           10
         2       268       135       267       135           10
         3       268       135       267       135           10
         1       268       136       268       135           10
         2       268       136       268       135           10
         3       268       136       268       135           10
         1       268       141       267       141           10
         2       268       141       267       141           10
         3       268       141       267       141           10
         1       268       142       268       141           10
         2       268       142       268       141           10
         3       268       142       268       141           10
         1       269       136       268       136           10
         2       269       136       268       136           10
         3       269       136       268       136           10
         1       269       137       269       136           10
         2       269       137       269       136           10
         3       269       137       269       136           10
         1       269       142       268       142           10
         2       269       142       268       142           10
         3       269       142       268       142           10
         1       269       143       269       142           10
         2       269       143       269       142           10
         3       269       143       269       142           10
         1       270       137       269       137           10
         2       270       137       269       137           10
         3       270       137       269       137           10
         1       270       138       270       137           10
         2       270       138       270       137           10
         3       270       138       270       137           10
         1       270       143       269       143           10
         2       270       143       269       143           10
         3       270       143       269       143           10
         1       270       144       270       143           10
         2       270       144       270       143           10
         3       270       144       270       143           10
         1       271       133       270       133           10
         2       271       133       270       133           10
         3       271       133       270       133           10
         1       271       134       271       133           10
         2       271       134       271       133           10
         3       271       134       271       133           10
         1       271       138       270       138           10
         2       271       138       270       138           10
         3       271       138       270       138           10
         1       271       139       271       138           10
         2       271       139       271       138           10
         3       271       139       271       138           10
         1       271       144       270       144           10
         2       271       144       270       144           10
         3       271       144       270       144           10
         1       271       145       271       144           10
         2       271       145       271       144           10
         3       271       145       271       144           10
         1       272       134       272       133           10
         2       272       134       272       133           10
         3       272       134       272       133           10
         1       272       139       271       139           10
         2       272       139       271       139           10
         3       272       139       271       139           10
         1       272       140       272       139           10
         2       272       140       272       139           10
         3       272       140       272       139           10
         1       272       145       271       145           10
         2       272       145       271       145           10
         3       272       145       271       145           10
         1       272       146       272       145           10
         2       272       146       272       145           10
         3       272       146       272       145           10
         1       273       134       272       134           10
         2       273       134       272       134           10
         3       273       134       272       134           10
         1       273       135       273       134           10
         2       273       135       273       134           10
         3       273       135       273       134           10
         1       273       140       272       140           10
         2       273       140       272       140           10
         3       273       140       272       140           10
         1       273       141       273       140           10
         2       273       141       273       140           10
         3       273       141       273       140           10
         1       273       146       272       146           10
         2       273       146       272       146           10
         3       273       146       272       146           10
         1       273       147       273       146           10
         2       273       147       273       146           10
         3       273       147       273       146           10
         1       274       135       274       134           10
         2       274       135       274       134           10
         3       274       135       274       134           10
         1       274       141       273       141           10
         2       274       141       273       141           10
         3       274       141       273       141           10
         1       274       142       273       142           10
         2       274       142       273       142           10
         3       274       142       273       142           10
         1       274       143       274       142           10
         2       274       143       274       142           10
         3       274       143       274       142           10
         1       274       147       274       146           10
         2       274       147       274       146           10
         3       274       147       274       146           10
         1       275       135       274       135           10
         2       275       135       274       135           10
         3       275       135       274       135           10
         1       275       136       275       135           10
         2       275       136       275       135           10
         3       275       136       275       135           10
         1       275       143       274       143           10
         2       275       143       274       143           10
         3       275       143       274       143           10
         1       275       144       275       143           10
         2       275       144       275       143           10
         3       275       144       275       143           10
         1       275       147       274       147           10
         2       275       147       274       147           10
         3       275       147       274       147           10
         1       275       148       275       147           10
         2       275       148       275       147           10
         3       275       148       275       147           10
         1       276       136       276       135           10
         2       276       136       276       135           10
         3       276       136       276       135           10
         1       276       144       275       144           10
         2       276       144       275       144           10
         3       276       144       275       144           10
         1       276       145       276       144           10
         2       276       145       276       144           10
         3       276       145       276       144           10
         1       276       148       275       148           10
         2       276       148       275       148           10
         3       276       148       275       148           10
         1       276       149       276       148           10
         2       276       149       276       148           10
         3       276       149       276       148           10
         1       277       136       276       136           10
         2       277       136       276       136           10
         3       277       136       276       136           10
         1       277       137       277       136           10
         2       277       137       277       136           10
         3       277       137       277       136           10
         1       277       145       276       145           10
         2       277       145       276       145           10
         3       277       145       276       145           10
         1       277       146       277       145           10
         2       277       146       277       145           10
         3       277       146       277       145           10
         1       277       149       276       149           10
         2       277       149       276       149           10
         3       277       149       276       149           10
         1       277       150       277       149           10
         2       277       150       277       149           10
         3       277       150       277       149           10
         1       278       137       277       137           10
         2       278       137       277       137           10
         3       278       137       277       137           10
         1       278       138       278       137           10
         2       278       138       278       137           10
         3       278       138       278       137           10
         1       278       146       277       146           10
         2       278       146       277       146           10
         3       278       146       277       146           10
         1       278       147       277       147           10
         2       278       147       277       147           10
         3       278       147       277       147           10
         1       278       148       278       147           10
         2       278       148       278       147           10
         3       278       148       278       147           10
         1       278       150       277       150           10
         2       278       150       277       150           10
         3       278       150       277       150           10
         1       278       151       278       150           10
         2       278       151       278       150           10
         3       278       151       278       150           10
         1       279       138       278       138           10
         2       279       138       278       138           10
         3       279       138       278       138           10
         1       279       139       279       138           10
         2       279       139       279       138           10
         3       279       139       279       138           10
         1       279       148       278       148           10
         2       279       148       278       148           10
         3       279       148       278       148           10
         1       279       149       279       148           10
         2       279       149       279       148           10
         3       279       149       279       148           10
         1       279       151       279       150           10
         2       279       151       279       150           10
         3       279       151       279       150           10
         1       280       149       279       149           10
         2       280       149       279       149           10
         3       280       149       279       149           10
         1       280       150       280       149           10
         2       280       150       280       149           10
         3       280       150       280       149           10
         1       280       151       279       151           10
         2       280       151       279       151           10
         3       280       151       279       151           10
         1       280       152       280       151           10
         2       280       152       280       151           10
         3       280       152       280       151           10
         1       281       150       280       150           10
         2       281       150       280       150           10
         3       281       150       280       150           10
         1       281       152       281       151           10
         2       281       152       281       151           10
         3       281       152       281       151           10
         1       282       152       281       152           10
         2       282       152       281       152           10
         3       282       152       281       152           10
         1       282       153       282       152           10
         2       282       153       282       152           10
         3       282       153       282       152           10
         1       283       153       283       152           10
         2       283       153       283       152           10
         3       283       153       283       152           10
         1       284       153       283       153           10
         2       284       153       283       153           10
         3       284       153       283       153           10
         1       284       154       284       153           10
         2       284       154       284       153           10
         3       284       154       284       153           10
         1       285       154       284       154           10
         2       285       154       284       154           10
         3       285       154       284       154           10
         1       285       155       285       154           10
         2       285       155       285       154           10
         3       285       155       285       154           10
         1       286       155       286       154           10
         2       286       155       286       154           10
         3       286       155       286       154           10
         1       287       155       286       155           10
         2       287       155       286       155           10
         3       287       155       286       155           10
         1       287       156       287       155           10
         2       287       156       287       155           10
         3       287       156       287       155           10
         1       288       156       287       156           10
         2       288       156       287       156           10
         3       288       156       287       156           10
         1       288       157       288       156           10
         2       288       157       288       156           10
         3       288       157       288       156           10
         1       289       157       288       157           10
         2       289       157       288       157           10
         3       289       157       288       157           10
         1       289       158       289       157           10
         2       289       158       289       157           10
         3       289       158       289       157           10
         1       290       158       289       158           10
         2       290       158       289       158           10
         3       290       158       289       158           10
         1       290       159       290       158           10
         2       290       159       290       158           10
         3       290       159       290       158           10
         1       291       159       291       158           10
         2       291       159       291       158           10
         3       291       159       291       158           10
         1       292       159       291       159           10
         2       292       159       291       159           10
         3       292       159       291       159           10
         1       292       160       292       159           10
         2       292       160       292       159           10
         3       292       160       292       159           10
         1       293       160       292       160           10
         2       293       160       292       160           10
         3       293       160       292       160           10
         1       293       161       293       160           10
         2       293       161       293       160           10
         3       293       161       293       160           10
         1       294       161       293       161           10
         2       294       161       293       161           10
         3       294       161       293       161           10
         1       294       162       294       161           10
         2       294       162       294       161           10
         3       294       162       294       161           10
         1       295       162       294       162           10
         2       295       162       294       162           10