# HOB package for  MODFLOW-NWT, generated by Flopy.
     24594         0         0         0     -9999
         1
HO_0                    1        290        181        272                 23.0    -0.4858    -0.4281    38.3134   # DATASET 3 - Observation 1
HO_1                    1        292        178        270                 12.0     0.2332    -0.1701    38.8010   # DATASET 3 - Observation 2
HO_2                    1        294        158        271                 18.0     0.4200    -0.0683    27.7947   # DATASET 3 - Observation 3
HO_3                    1        296        157        297                 16.0     0.0147    -0.4443    18.7147   # DATASET 3 - Observation 4
HO_4                    1        375        150        268                 23.0     0.1560     0.2583    60.0547   # DATASET 3 - Observation 5
HO_5                    1        294        148        -49                  0.0    -0.4371     0.1376     0.0000   # DATASET 3 - Observation 6
         1                                                                                                         # DATASET 5 - Observation 6
HO_5.1                  4                 11.0    23.8963                                                          # DATASET 6 - Observation 6.1
HO_5.2                 11                 15.0    24.0182                                                          # DATASET 6 - Observation 6.2
HO_5.3                 16                 29.0    24.2316                                                          # DATASET 6 - Observation 6.3
HO_5.4                 22                 29.0    23.9268                                                          # DATASET 6 - Observation 6.4
HO_5.5                 28                 29.0    23.8963                                                          # DATASET 6 - Observation 6.5
HO_5.6                 34                 22.0    23.9268                                                          # DATASET 6 - Observation 6.6
HO_5.7                 41                 26.0    24.0792                                                          # DATASET 6 - Observation 6.7
HO_5.8                 47                 15.0    24.1097                                                          # DATASET 6 - Observation 6.8
HO_5.9                 52                 27.0    24.0792                                                          # DATASET 6 - Observation 6.9
HO_5.10                58                 25.0    23.8049                                                          # DATASET 6 - Observation 6.10
HO_5.11                65                 30.0    24.5974                                                          # DATASET 6 - Observation 6.11
HO_5.12                71                  6.0    24.4145                                                          # DATASET 6 - Observation 6.12
HO_5.13                77                 21.0    24.5974                                                          # DATASET 6 - Observation 6.13
HO_5.14                84                 16.0    24.7802                                                          # DATASET 6 - Observation 6.14
HO_5.15                88                 25.0    24.6278                                                          # DATASET 6 - Observation 6.15
HO_5.16                94                 29.0    24.6888                                                          # DATASET 6 - Observation 6.16
HO_5.17               100                 22.0    24.8717                                                          # DATASET 6 - Observation 6.17
HO_5.18               107                 23.0    24.6583                                                          # DATASET 6 - Observation 6.18
HO_5.19               112                 14.0    25.6032                                                          # DATASET 6 - Observation 6.19
HO_5.20               120                  6.0    24.4450                                                          # DATASET 6 - Observation 6.20
HO_5.21               124                 19.0    24.6888                                                          # DATASET 6 - Observation 6.21
HO_5.22               131                 15.0    25.3898                                                          # DATASET 6 - Observation 6.22
HO_5.23               137                 16.0    24.5059                                                          # DATASET 6 - Observation 6.23
HO_5.24               142                 16.0    24.5669                                                          # DATASET 6 - Observation 6.24
HO_5.25               148                 10.0    24.5974                                                          # DATASET 6 - Observation 6.25
HO_5.26               160                  9.0    24.5974                                                          # DATASET 6 - Observation 6.26
HO_5.27               167                 12.0    24.5364                                                          # DATASET 6 - Observation 6.27
HO_5.28               171                 29.0    24.6278                                                          # DATASET 6 - Observation 6.28
HO_5.29               179                  2.0    24.4450                                                          # DATASET 6 - Observation 6.29
HO_5.30               184                 13.0    25.2374                                                          # DATASET 6 - Observation 6.30
HO_5.31               191                 16.0    24.5974                                                          # DATASET 6 - Observation 6.31
HO_5.32               196                 17.0    26.6090                                                          # DATASET 6 - Observation 6.32
HO_5.33               208                  4.0    24.8412                                                          # DATASET 6 - Observation 6.33
HO_5.34               214                 24.0    24.8717                                                          # DATASET 6 - Observation 6.34
HO_5.35               220                 16.0    24.8412                                                          # DATASET 6 - Observation 6.35
HO_5.36               227                 20.0    24.8717                                                          # DATASET 6 - Observation 6.36
HO_5.37               232                 13.0    24.8107                                                          # DATASET 6 - Observation 6.37
HO_5.38               239                 24.0    24.8412                                                          # DATASET 6 - Observation 6.38
HO_5.39               245                  0.0    24.9022                                                          # DATASET 6 - Observation 6.39
HO_5.40               251                 18.0    24.7193                                                          # DATASET 6 - Observation 6.40
HO_5.41               257                 19.0    24.7193                                                          # DATASET 6 - Observation 6.41
HO_5.42               264                 20.0    24.6888                                                          # DATASET 6 - Observation 6.42
HO_5.43               269                  4.0    24.6278                                                          # DATASET 6 - Observation 6.43
HO_5.44               275                 28.0    24.8107                                                          # DATASET 6 - Observation 6.44
HO_5.45               280                 18.0    24.7498                                                          # DATASET 6 - Observation 6.45
HO_5.46               291                 13.0    24.8107                                                          # DATASET 6 - Observation 6.46
HO_5.47               298                 16.0    24.7802                                                          # DATASET 6 - Observation 6.47
HO_5.48               303                 24.0    24.7193                                                          # DATASET 6 - Observation 6.48
HO_5.49               310                 22.0    24.7498                                                          # DATASET 6 - Observation 6.49
HO_6                    1        330        148        272                 22.0    -0.4893     0.0111    15.5082   # DATASET 3 - Observation 7
HO_7                    3        212        147        272                 21.0    -0.2240    -0.0904   553.6600   # DATASET 3 - Observation 8
HO_8                    1        254        145        -36                  0.0     0.0099     0.2711     0.0000   # DATASET 3 - Observation 9
         1                                                                                                         # DATASET 5 - Observation 9
HO_8.1                  4                 11.0    64.9224                                                          # DATASET 6 - Observation 9.1
HO_8.2                 11                 19.0    63.9470                                                          # DATASET 6 - Observation 9.2
HO_8.3                 16                 29.0    65.3491                                                          # DATASET 6 - Observation 9.3
HO_8.4                 22                 29.0    63.7946                                                          # DATASET 6 - Observation 9.4
HO_8.5                 28                 29.0    65.2882                                                          # DATASET 6 - Observation 9.5
HO_8.6                 36                 16.0    65.2272                                                          # DATASET 6 - Observation 9.6
HO_8.7                 41                 26.0    65.0443                                                          # DATASET 6 - Observation 9.7
HO_8.8                 47                 15.0    63.7946                                                          # DATASET 6 - Observation 9.8
HO_8.9                 52                 27.0    64.9529                                                          # DATASET 6 - Observation 9.9
HO_8.10                58                 25.0    63.4594                                                          # DATASET 6 - Observation 9.10
HO_8.11                65                 30.0    65.2272                                                          # DATASET 6 - Observation 9.11
HO_8.12                71                  6.0    63.7032                                                          # DATASET 6 - Observation 9.12
HO_8.13                77                 21.0    65.3491                                                          # DATASET 6 - Observation 9.13
HO_8.14                84                 16.0    65.4101                                                          # DATASET 6 - Observation 9.14
HO_8.15                88                 25.0    64.8919                                                          # DATASET 6 - Observation 9.15
HO_8.16                95                 20.0    64.0080                                                          # DATASET 6 - Observation 9.16
HO_8.17               100                 22.0    65.5625                                                          # DATASET 6 - Observation 9.17
HO_8.18               107                 23.0    64.8005                                                          # DATASET 6 - Observation 9.18
HO_8.19               112                 14.0    66.4159                                                          # DATASET 6 - Observation 9.19
HO_8.20               120                  0.0    64.4042                                                          # DATASET 6 - Observation 9.20
HO_8.21               124                 20.0    65.5320                                                          # DATASET 6 - Observation 9.21
HO_8.22               131                 15.0    63.7337                                                          # DATASET 6 - Observation 9.22
HO_8.23               137                 22.0    64.4042                                                          # DATASET 6 - Observation 9.23
HO_8.24               142                 16.0    63.1241                                                          # DATASET 6 - Observation 9.24
HO_8.25               148                 10.0    65.2577                                                          # DATASET 6 - Observation 9.25
HO_8.26               154                 14.0    63.0022                                                          # DATASET 6 - Observation 9.26
HO_8.27               160                  9.0    65.6539                                                          # DATASET 6 - Observation 9.27
HO_8.28               167                 17.0    63.7337                                                          # DATASET 6 - Observation 9.28
HO_8.29               171                 29.0    65.8673                                                          # DATASET 6 - Observation 9.29
HO_8.30               179                  2.0    63.5508                                                          # DATASET 6 - Observation 9.30
HO_8.31               184                 13.0    66.4159                                                          # DATASET 6 - Observation 9.31
HO_8.32               191                 15.0    63.6422                                                          # DATASET 6 - Observation 9.32
HO_8.33               195                 22.0    67.0560                                                          # DATASET 6 - Observation 9.33
HO_8.34               208                 12.0    65.0748                                                          # DATASET 6 - Observation 9.34
HO_8.35               214                 24.0    63.1850                                                          # DATASET 6 - Observation 9.35
HO_8.36               220                 16.0    64.8614                                                          # DATASET 6 - Observation 9.36
HO_9                    1        258        143        297                 15.0     0.2733     0.1496    58.2778   # DATASET 3 - Observation 10
HO_10                   3        258        136        272                  2.0     0.2492    -0.1602    95.8992   # DATASET 3 - Observation 11
HO_11                   1        269        131        -50                  0.0    -0.0800    -0.1283     0.0000   # DATASET 3 - Observation 12
         1                                                                                                         # DATASET 5 - Observation 12
HO_11.1                 4                 11.0    45.5066                                                          # DATASET 6 - Observation 12.1
HO_11.2                11                 15.0    45.5066                                                          # DATASET 6 - Observation 12.2
HO_11.3                16                 29.0    45.5676                                                          # DATASET 6 - Observation 12.3
HO_11.4                22                 29.0    45.6590                                                          # DATASET 6 - Observation 12.4
HO_11.5                28                 29.0    45.5981                                                          # DATASET 6 - Observation 12.5
HO_11.6                36                 16.0    45.7810                                                          # DATASET 6 - Observation 12.6
HO_11.7                41                 26.0    45.5066                                                          # DATASET 6 - Observation 12.7
HO_11.8                47                 15.0    45.6590                                                          # DATASET 6 - Observation 12.8
HO_11.9                52                 27.0    45.4457                                                          # DATASET 6 - Observation 12.9
HO_11.10               58                 25.0    45.5676                                                          # DATASET 6 - Observation 12.10
HO_11.11               65                 30.0    45.6286                                                          # DATASET 6 - Observation 12.11
HO_11.12               71                  6.0    45.5676                                                          # DATASET 6 - Observation 12.12
HO_11.13               77                 29.0    45.6286                                                          # DATASET 6 - Observation 12.13
HO_11.14               84                 16.0    45.6590                                                          # DATASET 6 - Observation 12.14
HO_11.15               88                 25.0    45.3542                                                          # DATASET 6 - Observation 12.15
HO_11.16               94                 29.0    45.4152                                                          # DATASET 6 - Observation 12.16
HO_11.17              100                 22.0    45.7810                                                          # DATASET 6 - Observation 12.17
HO_11.18              107                 23.0    45.3542                                                          # DATASET 6 - Observation 12.18
HO_11.19              112                 14.0    46.2991                                                          # DATASET 6 - Observation 12.19
HO_11.20              120                  6.0    45.3542                                                          # DATASET 6 - Observation 12.20
HO_11.21              124                 20.0    45.2933                                                          # DATASET 6 - Observation 12.21
HO_11.22              131                 15.0    45.2323                                                          # DATASET 6 - Observation 12.22
HO_11.23              137                 17.0    45.1714                                                          # DATASET 6 - Observation 12.23
HO_11.24              142                 16.0    45.1104                                                          # DATASET 6 - Observation 12.24
HO_11.25              148                 10.0    45.2323                                                          # DATASET 6 - Observation 12.25
HO_11.26              154                 14.0    45.1714                                                          # DATASET 6 - Observation 12.26
HO_11.27              160                  9.0    45.1409                                                          # DATASET 6 - Observation 12.27
HO_11.28              167                 12.0    45.1714                                                          # DATASET 6 - Observation 12.28
HO_11.29              171                 29.0    45.2018                                                          # DATASET 6 - Observation 12.29
HO_11.30              179                  2.0    44.8666                                                          # DATASET 6 - Observation 12.30
HO_11.31              184                 13.0    45.7200                                                          # DATASET 6 - Observation 12.31
HO_11.32              191                 15.0    44.5618                                                          # DATASET 6 - Observation 12.32
HO_11.33              196                 17.0    47.3354                                                          # DATASET 6 - Observation 12.33
HO_11.34              208                  4.0    44.9885                                                          # DATASET 6 - Observation 12.34
HO_11.35              214                 24.0    44.8970                                                          # DATASET 6 - Observation 12.35
HO_11.36              220                 16.0    45.0190                                                          # DATASET 6 - Observation 12.36
HO_11.37              227                 20.0    44.8970                                                          # DATASET 6 - Observation 12.37
HO_11.38              232                 13.0    44.9275                                                          # DATASET 6 - Observation 12.38
HO_11.39              239                 24.0    44.9275                                                          # DATASET 6 - Observation 12.39
HO_11.40              245                  0.0    45.2628                                                          # DATASET 6 - Observation 12.40
HO_11.41              251                 17.0    44.8666                                                          # DATASET 6 - Observation 12.41
HO_11.42              257                 19.0    44.9275                                                          # DATASET 6 - Observation 12.42
HO_11.43              264                 20.0    44.8666                                                          # DATASET 6 - Observation 12.43
HO_11.44              269                  4.0    44.7751                                                          # DATASET 6 - Observation 12.44
HO_11.45              275                 28.0    44.8970                                                          # DATASET 6 - Observation 12.45
HO_11.46              280                 18.0    44.8666                                                          # DATASET 6 - Observation 12.46
HO_11.47              291                 14.0    44.9580                                                          # DATASET 6 - Observation 12.47
HO_11.48              298                 16.0    44.8056                                                          # DATASET 6 - Observation 12.48
HO_11.49              303                 24.0    44.8056                                                          # DATASET 6 - Observation 12.49
HO_11.50              310                 22.0    44.7142                                                          # DATASET 6 - Observation 12.50
HO_12                   1        275        130        272                  1.0    -0.3901     0.4958    57.9973   # DATASET 3 - Observation 13
HO_13                   3        348        130        270                 19.0    -0.3599     0.1744    60.7131   # DATASET 3 - Observation 14
HO_14                   3        305        126        272                  1.0     0.0966    -0.4624   380.5398   # DATASET 3 - Observation 15
HO_15                   3        367        123        271                 23.0     0.4825     0.0641   321.5152   # DATASET 3 - Observation 16
HO_16                   3        222        116        -50                  0.0     0.0736    -0.1097     0.0000   # DATASET 3 - Observation 17
         1                                                                                                         # DATASET 5 - Observation 17
HO_16.1               271                 26.0    85.4873                                                          # DATASET 6 - Observation 17.1
HO_16.2                 4                 11.0    89.0626                                                          # DATASET 6 - Observation 17.2
HO_16.3                11                 19.0    89.0016                                                          # DATASET 6 - Observation 17.3
HO_16.4                16                 25.0    89.5807                                                          # DATASET 6 - Observation 17.4
HO_16.5                22                 29.0    88.6968                                                          # DATASET 6 - Observation 17.5
HO_16.6                28                 29.0    89.3978                                                          # DATASET 6 - Observation 17.6
HO_16.7                36                 16.0    89.6112                                                          # DATASET 6 - Observation 17.7
HO_16.8                42                 23.0    89.0626                                                          # DATASET 6 - Observation 17.8
HO_16.9                47                 15.0    88.7882                                                          # DATASET 6 - Observation 17.9
HO_16.10               52                 27.0    88.9406                                                          # DATASET 6 - Observation 17.10
HO_16.11               58                 25.0    88.3615                                                          # DATASET 6 - Observation 17.11
HO_16.12               65                 30.0    89.6112                                                          # DATASET 6 - Observation 17.12
HO_16.13               70                 13.0    88.7578                                                          # DATASET 6 - Observation 17.13
HO_16.14               77                 29.0    89.3064                                                          # DATASET 6 - Observation 17.14
HO_16.15               84                 16.0    90.0074                                                          # DATASET 6 - Observation 17.15
HO_16.16               88                 25.0    89.3369                                                          # DATASET 6 - Observation 17.16
HO_16.17               95                 20.0    89.0016                                                          # DATASET 6 - Observation 17.17
HO_16.18              101                 27.0    89.4893                                                          # DATASET 6 - Observation 17.18
HO_16.19              107                 23.0    89.1540                                                          # DATASET 6 - Observation 17.19
HO_16.20              112                 28.0    89.9770                                                          # DATASET 6 - Observation 17.20
HO_16.21              120                  6.0    89.0016                                                          # DATASET 6 - Observation 17.21
HO_16.22              124                 20.0    89.4283                                                          # DATASET 6 - Observation 17.22
HO_16.23              131                 15.0    88.7882                                                          # DATASET 6 - Observation 17.23
HO_16.24              137                 22.0    88.5749                                                          # DATASET 6 - Observation 17.24
HO_16.25              142                 17.0    88.6663                                                          # DATASET 6 - Observation 17.25
HO_16.26              148                 10.0    89.1540                                                          # DATASET 6 - Observation 17.26
HO_16.27              154                 14.0    88.0262                                                          # DATASET 6 - Observation 17.27
HO_16.28              160                  9.0    89.5502                                                          # DATASET 6 - Observation 17.28
HO_16.29              165                 24.0    88.3615                                                          # DATASET 6 - Observation 17.29
HO_16.30              171                 29.0    89.9465                                                          # DATASET 6 - Observation 17.30
HO_16.31              184                 13.0    90.2208                                                          # DATASET 6 - Observation 17.31
HO_16.32              191                 15.0    88.6968                                                          # DATASET 6 - Observation 17.32
HO_16.33              195                 22.0    91.8058                                                          # DATASET 6 - Observation 17.33
HO_16.34              208                 12.0    89.2454                                                          # DATASET 6 - Observation 17.34
HO_16.35              214                 24.0    88.4834                                                          # DATASET 6 - Observation 17.35
HO_16.36              220                 16.0    88.9406                                                          # DATASET 6 - Observation 17.36
HO_16.37              227                 21.0    88.5749                                                          # DATASET 6 - Observation 17.37
HO_16.38              232                 15.0    89.1235                                                          # DATASET 6 - Observation 17.38
HO_16.39              239                 23.0    88.5139                                                          # DATASET 6 - Observation 17.39
HO_16.40              245                  0.0    90.1598                                                          # DATASET 6 - Observation 17.40
HO_16.41              251                 17.0    88.9102                                                          # DATASET 6 - Observation 17.41
HO_16.42              257                 19.0    89.0626                                                          # DATASET 6 - Observation 17.42
HO_16.43              264                 20.0    88.3615                                                          # DATASET 6 - Observation 17.43
HO_16.44              269                  4.0    89.2454                                                          # DATASET 6 - Observation 17.44
HO_16.45              275                 28.0    88.5444                                                          # DATASET 6 - Observation 17.45
HO_16.46              280                 18.0    88.7578                                                          # DATASET 6 - Observation 17.46
HO_16.47              291                 13.0    89.3369                                                          # DATASET 6 - Observation 17.47
HO_16.48              298                 16.0    87.9653                                                          # DATASET 6 - Observation 17.48