# HOB package for MODFLOW-NWT generated by Flopy 3.3.5
     16438         0         0      1015     -9999
         1
HO_0                    3        347        129        270                 19.0    -0.3599     0.1744    60.7131   # DATASET 3 - Observation 1
HO_1                    3        366        122        271                 23.0     0.4825     0.0641   321.5152   # DATASET 3 - Observation 2
HO_2                    2        373        147         -9                  0.0     0.2282    -0.2041     0.0000   # DATASET 3 - Observation 3
         1                                                                                                         # DATASET 5 - Observation 3
HO_2.1                263                  7.0    93.3938                                                          # DATASET 6 - Observation 3.1
HO_2.2                270                  7.0    90.8944                                                          # DATASET 6 - Observation 3.2
HO_2.3                274                 15.0    92.0222                                                          # DATASET 6 - Observation 3.3
HO_2.4                280                 22.0    93.6376                                                          # DATASET 6 - Observation 3.4
HO_2.5                287                 23.0    92.2965                                                          # DATASET 6 - Observation 3.5
HO_2.6                291                 18.0    93.3633                                                          # DATASET 6 - Observation 3.6
HO_2.7                298                  9.0    90.4372                                                          # DATASET 6 - Observation 3.7
HO_2.8                303                 24.0    92.6927                                                          # DATASET 6 - Observation 3.8
HO_2.9                310                 15.0    90.5896                                                          # DATASET 6 - Observation 3.9
HO_3                    1        358        143         -9                  0.0    -0.1540     0.1118     0.0000   # DATASET 3 - Observation 4
         1                                                                                                         # DATASET 5 - Observation 4
HO_3.1                263                  7.0    58.8112                                                          # DATASET 6 - Observation 4.1
HO_3.2                270                  7.0    59.1769                                                          # DATASET 6 - Observation 4.2
HO_3.3                274                 19.0    46.1315                                                          # DATASET 6 - Observation 4.3
HO_3.4                280                 22.0    59.9084                                                          # DATASET 6 - Observation 4.4
HO_3.5                287                 15.0    24.7345                                                          # DATASET 6 - Observation 4.5
HO_3.6                291                 18.0    50.9778                                                          # DATASET 6 - Observation 4.6
HO_3.7                298                  9.0    24.0944                                                          # DATASET 6 - Observation 4.7
HO_3.8                303                 24.0    42.2300                                                          # DATASET 6 - Observation 4.8
HO_3.9                310                 15.0    28.6055                                                          # DATASET 6 - Observation 4.9
HO_4                    1        351         99       -955                  0.0     0.3474    -0.3930     0.0000   # DATASET 3 - Observation 5
         1                                                                                                         # DATASET 5 - Observation 5
HO_4.1                260                 18.0     0.7065                                                          # DATASET 6 - Observation 5.1
HO_4.2                260                 19.0     0.7809                                                          # DATASET 6 - Observation 5.2
HO_4.3                260                 20.0     0.8519                                                          # DATASET 6 - Observation 5.3
HO_4.4                260                 21.0     0.9202                                                          # DATASET 6 - Observation 5.4
HO_4.5                260                 22.0     1.0092                                                          # DATASET 6 - Observation 5.5
HO_4.6                260                 23.0     1.1287                                                          # DATASET 6 - Observation 5.6
HO_4.7                260                 24.0     1.0924                                                          # DATASET 6 - Observation 5.7
HO_4.8                260                 25.0     0.9534                                                          # DATASET 6 - Observation 5.8
HO_4.9                260                 26.0     0.7300                                                          # DATASET 6 - Observation 5.9
HO_4.10               260                 27.0     0.5462                                                          # DATASET 6 - Observation 5.10
HO_4.11               260                 28.0     0.5154                                                          # DATASET 6 - Observation 5.11
HO_4.12               260                 29.0     0.5401                                                          # DATASET 6 - Observation 5.12
HO_4.13               260                 30.0     0.6175                                                          # DATASET 6 - Observation 5.13
HO_4.14               261                  0.0     0.7324                                                          # DATASET 6 - Observation 5.14
HO_4.15               261                  1.0     0.8778                                                          # DATASET 6 - Observation 5.15
HO_4.16               261                  2.0     0.9723                                                          # DATASET 6 - Observation 5.16
HO_4.17               261                  3.0     1.0299                                                          # DATASET 6 - Observation 5.17
HO_4.18               261                  4.0     1.0211                                                          # DATASET 6 - Observation 5.18
HO_4.19               261                  5.0     1.0430                                                          # DATASET 6 - Observation 5.19
HO_4.20               261                  6.0     1.0040                                                          # DATASET 6 - Observation 5.20
HO_4.21               261                  7.0     0.8586                                                          # DATASET 6 - Observation 5.21
HO_4.22               261                  8.0     0.6745                                                          # DATASET 6 - Observation 5.22
HO_4.23               261                  9.0     0.5825                                                          # DATASET 6 - Observation 5.23
HO_4.24               261                 10.0     0.5221                                                          # DATASET 6 - Observation 5.24
HO_4.25               261                 11.0     0.5130                                                          # DATASET 6 - Observation 5.25
HO_4.26               261                 12.0     0.5422                                                          # DATASET 6 - Observation 5.26
HO_4.27               261                 13.0     0.5877                                                          # DATASET 6 - Observation 5.27
HO_4.28               261                 14.0     0.6730                                                          # DATASET 6 - Observation 5.28
HO_4.29               261                 15.0     0.7084                                                          # DATASET 6 - Observation 5.29
HO_4.30               261                 16.0     0.7370                                                          # DATASET 6 - Observation 5.30
HO_4.31               261                 17.0     0.7007                                                          # DATASET 6 - Observation 5.31
HO_4.32               261                 18.0     0.7471                                                          # DATASET 6 - Observation 5.32
HO_4.33               261                 19.0     0.8632                                                          # DATASET 6 - Observation 5.33
HO_4.34               261                 20.0     0.9412                                                          # DATASET 6 - Observation 5.34
HO_4.35               261                 21.0     0.9891                                                          # DATASET 6 - Observation 5.35
HO_4.36               261                 22.0     0.8638                                                          # DATASET 6 - Observation 5.36
HO_4.37               261                 23.0     0.9839                                                          # DATASET 6 - Observation 5.37
HO_4.38               261                 24.0     1.1296                                                          # DATASET 6 - Observation 5.38
HO_4.39               261                 25.0     1.2808                                                          # DATASET 6 - Observation 5.39
HO_4.40               261                 26.0     1.4536                                                          # DATASET 6 - Observation 5.40
HO_4.41               261                 27.0     1.5682                                                          # DATASET 6 - Observation 5.41
HO_4.42               261                 28.0     1.6188                                                          # DATASET 6 - Observation 5.42
HO_4.43               261                 29.0     1.1125                                                          # DATASET 6 - Observation 5.43
HO_4.44               262                  0.0     0.8970                                                          # DATASET 6 - Observation 5.44
HO_4.45               262                  1.0     0.9238                                                          # DATASET 6 - Observation 5.45
HO_4.46               262                  2.0     0.9022                                                          # DATASET 6 - Observation 5.46
HO_4.47               262                  3.0     1.1025                                                          # DATASET 6 - Observation 5.47
HO_4.48               262                  4.0     1.0415                                                          # DATASET 6 - Observation 5.48
HO_4.49               262                  5.0     1.1165                                                          # DATASET 6 - Observation 5.49
HO_4.50               262                  6.0     1.3814                                                          # DATASET 6 - Observation 5.50
HO_4.51               262                  7.0     1.3393                                                          # DATASET 6 - Observation 5.51
HO_4.52               262                  8.0     0.7227                                                          # DATASET 6 - Observation 5.52
HO_4.53               262                  9.0     0.6642                                                          # DATASET 6 - Observation 5.53
HO_4.54               262                 10.0     1.1174                                                          # DATASET 6 - Observation 5.54
HO_4.55               262                 11.0     1.3993                                                          # DATASET 6 - Observation 5.55
HO_4.56               262                 12.0     1.6660                                                          # DATASET 6 - Observation 5.56
HO_4.57               262                 13.0     1.8032                                                          # DATASET 6 - Observation 5.57
HO_4.58               262                 14.0     0.9540                                                          # DATASET 6 - Observation 5.58
HO_4.59               262                 15.0     0.8574                                                          # DATASET 6 - Observation 5.59
HO_4.60               262                 16.0     0.8193                                                          # DATASET 6 - Observation 5.60
HO_4.61               262                 17.0     0.8544                                                          # DATASET 6 - Observation 5.61
HO_4.62               262                 18.0     0.8842                                                          # DATASET 6 - Observation 5.62
HO_4.63               262                 19.0     0.9214                                                          # DATASET 6 - Observation 5.63
HO_4.64               262                 20.0     0.8943                                                          # DATASET 6 - Observation 5.64
HO_4.65               262                 21.0     0.8306                                                          # DATASET 6 - Observation 5.65
HO_4.66               262                 22.0     0.7666                                                          # DATASET 6 - Observation 5.66
HO_4.67               262                 23.0     0.7550                                                          # DATASET 6 - Observation 5.67
HO_4.68               262                 24.0     0.7967                                                          # DATASET 6 - Observation 5.68
HO_4.69               262                 25.0     0.8376                                                          # DATASET 6 - Observation 5.69
HO_4.70               262                 26.0     0.8480                                                          # DATASET 6 - Observation 5.70
HO_4.71               262                 27.0     0.8687                                                          # DATASET 6 - Observation 5.71
HO_4.72               262                 28.0     0.8836                                                          # DATASET 6 - Observation 5.72
HO_4.73               262                 29.0     0.8931                                                          # DATASET 6 - Observation 5.73
HO_4.74               262                 30.0     0.9187                                                          # DATASET 6 - Observation 5.74
HO_4.75               263                  0.0     0.9370                                                          # DATASET 6 - Observation 5.75
HO_4.76               263                  1.0     1.0342                                                          # DATASET 6 - Observation 5.76
HO_4.77               263                  2.0     0.9531                                                          # DATASET 6 - Observation 5.77
HO_4.78               263                  3.0     0.9062                                                          # DATASET 6 - Observation 5.78
HO_4.79               263                  4.0     1.0695                                                          # DATASET 6 - Observation 5.79
HO_4.80               263                  5.0     1.3874                                                          # DATASET 6 - Observation 5.80
HO_4.81               263                  6.0     0.9827                                                          # DATASET 6 - Observation 5.81
HO_4.82               263                  7.0     1.4335                                                          # DATASET 6 - Observation 5.82
HO_4.83               263                  8.0     0.8178                                                          # DATASET 6 - Observation 5.83
HO_4.84               263                  9.0     0.6821                                                          # DATASET 6 - Observation 5.84
HO_4.85               263                 10.0     0.8126                                                          # DATASET 6 - Observation 5.85
HO_4.86               263                 11.0     1.3841                                                          # DATASET 6 - Observation 5.86
HO_4.87               263                 12.0     1.1278                                                          # DATASET 6 - Observation 5.87
HO_4.88               263                 13.0     0.8815                                                          # DATASET 6 - Observation 5.88
HO_4.89               263                 14.0     0.8324                                                          # DATASET 6 - Observation 5.89
HO_4.90               263                 15.0     0.8092                                                          # DATASET 6 - Observation 5.90
HO_4.91               263                 16.0     0.7922                                                          # DATASET 6 - Observation 5.91
HO_4.92               263                 17.0     0.7754                                                          # DATASET 6 - Observation 5.92
HO_4.93               263                 18.0     1.0013                                                          # DATASET 6 - Observation 5.93
HO_4.94               263                 19.0     1.4542                                                          # DATASET 6 - Observation 5.94
HO_4.95               263                 20.0     1.6633                                                          # DATASET 6 - Observation 5.95
HO_4.96               263                 21.0     0.7986                                                          # DATASET 6 - Observation 5.96
HO_4.97               263                 22.0     0.7016                                                          # DATASET 6 - Observation 5.97
HO_4.98               263                 23.0     0.9933                                                          # DATASET 6 - Observation 5.98
HO_4.99               263                 24.0     1.4182                                                          # DATASET 6 - Observation 5.99
HO_4.100              263                 25.0     1.1875                                                          # DATASET 6 - Observation 5.100
HO_4.101              263                 26.0     1.1031                                                          # DATASET 6 - Observation 5.101
HO_4.102              263                 27.0     0.9184                                                          # DATASET 6 - Observation 5.102
HO_4.103              263                 28.0     0.9641                                                          # DATASET 6 - Observation 5.103
HO_4.104              263                 29.0     1.0180                                                          # DATASET 6 - Observation 5.104
HO_4.105              264                  0.0     0.9616                                                          # DATASET 6 - Observation 5.105
HO_4.106              264                  1.0     1.2067                                                          # DATASET 6 - Observation 5.106
HO_4.107              264                  2.0     1.3268                                                          # DATASET 6 - Observation 5.107
HO_4.108              264                  3.0     0.8638                                                          # DATASET 6 - Observation 5.108
HO_4.109              264                  4.0     0.8778                                                          # DATASET 6 - Observation 5.109
HO_4.110              264                  5.0     0.8318                                                          # DATASET 6 - Observation 5.110
HO_4.111              264                  6.0     0.6706                                                          # DATASET 6 - Observation 5.111
HO_4.112              264                  7.0     0.6447                                                          # DATASET 6 - Observation 5.112
HO_4.113              264                  8.0     0.6459                                                          # DATASET 6 - Observation 5.113
HO_4.114              264                  9.0     0.6959                                                          # DATASET 6 - Observation 5.114
HO_4.115              264                 10.0     0.8419                                                          # DATASET 6 - Observation 5.115
HO_4.116              264                 11.0     1.1662                                                          # DATASET 6 - Observation 5.116
HO_4.117              264                 12.0     1.4853                                                          # DATASET 6 - Observation 5.117
HO_4.118              264                 13.0     1.6755                                                          # DATASET 6 - Observation 5.118
HO_4.119              264                 14.0     1.0168                                                          # DATASET 6 - Observation 5.119
HO_4.120              264                 15.0     1.1000                                                          # DATASET 6 - Observation 5.120
HO_4.121              264                 16.0     1.4280                                                          # DATASET 6 - Observation 5.121
HO_4.122              264                 17.0     1.6225                                                          # DATASET 6 - Observation 5.122
HO_4.123              264                 18.0     1.4685                                                          # DATASET 6 - Observation 5.123
HO_4.124              264                 19.0     1.8169                                                          # DATASET 6 - Observation 5.124
HO_4.125              264                 20.0     1.9221                                                          # DATASET 6 - Observation 5.125
HO_4.126              264                 21.0     1.4048                                                          # DATASET 6 - Observation 5.126
HO_4.127              264                 22.0     1.0924                                                          # DATASET 6 - Observation 5.127
HO_4.128              264                 23.0     0.7778                                                          # DATASET 6 - Observation 5.128
HO_4.129              264                 24.0     1.3048                                                          # DATASET 6 - Observation 5.129
HO_4.130              264                 25.0     1.6243                                                          # DATASET 6 - Observation 5.130
HO_4.131              264                 26.0     1.8943                                                          # DATASET 6 - Observation 5.131
HO_4.132              264                 27.0     2.0940                                                          # DATASET 6 - Observation 5.132
HO_4.133              264                 28.0     1.4545                                                          # DATASET 6 - Observation 5.133
HO_4.134              264                 29.0     1.3481                                                          # DATASET 6 - Observation 5.134
HO_4.135              264                 30.0     1.6584                                                          # DATASET 6 - Observation 5.135
HO_4.136              265                  0.0     1.9227                                                          # DATASET 6 - Observation 5.136
HO_4.137              265                  1.0     2.0751                                                          # DATASET 6 - Observation 5.137
HO_4.138              265                  2.0     0.8562                                                          # DATASET 6 - Observation 5.138
HO_4.139              265                  3.0     1.3871                                                          # DATASET 6 - Observation 5.139
HO_4.140              265                  4.0     1.6962                                                          # DATASET 6 - Observation 5.140
HO_4.141              265                  5.0     1.9711                                                          # DATASET 6 - Observation 5.141
HO_4.142              265                  6.0     2.2132                                                          # DATASET 6 - Observation 5.142
HO_4.143              265                  7.0     2.3905                                                          # DATASET 6 - Observation 5.143
HO_4.144              265                  8.0     2.5582                                                          # DATASET 6 - Observation 5.144
HO_4.145              265                  9.0     2.7106                                                          # DATASET 6 - Observation 5.145
HO_4.146              265                 10.0     2.8779                                                          # DATASET 6 - Observation 5.146
HO_4.147              265                 11.0     2.8011                                                          # DATASET 6 - Observation 5.147
HO_4.148              265                 12.0     0.6736                                                          # DATASET 6 - Observation 5.148
HO_4.149              265                 13.0     0.6611                                                          # DATASET 6 - Observation 5.149
HO_4.150              265                 14.0     0.6904                                                          # DATASET 6 - Observation 5.150
HO_4.151              265                 15.0     0.7541                                                          # DATASET 6 - Observation 5.151
HO_4.152              265                 16.0     0.6084                                                          # DATASET 6 - Observation 5.152
HO_4.153              265                 17.0     0.5541                                                          # DATASET 6 - Observation 5.153
HO_4.154              265                 18.0     0.5627                                                          # DATASET 6 - Observation 5.154
HO_4.155              265                 19.0     0.6599                                                          # DATASET 6 - Observation 5.155
HO_4.156              265                 20.0     1.3652                                                          # DATASET 6 - Observation 5.156
HO_4.157              265                 21.0     2.0074                                                          # DATASET 6 - Observation 5.157
HO_4.158              265                 22.0     2.1656                                                          # DATASET 6 - Observation 5.158
HO_4.159              265                 23.0     3.4842                                                          # DATASET 6 - Observation 5.159
HO_4.160              265                 24.0     2.4067                                                          # DATASET 6 - Observation 5.160
HO_4.161              265                 25.0     1.7249                                                          # DATASET 6 - Observation 5.161
HO_4.162              265                 26.0     1.3966                                                          # DATASET 6 - Observation 5.162
HO_4.163              265                 27.0     1.1982                                                          # DATASET 6 - Observation 5.163
HO_4.164              265                 28.0     1.0698                                                          # DATASET 6 - Observation 5.164
HO_4.165              265                 29.0     0.9839                                                          # DATASET 6 - Observation 5.165
HO_4.166              265                 30.0     0.9220                                                          # DATASET 6 - Observation 5.166
HO_4.167              266                  0.0     0.8665                                                          # DATASET 6 - Observation 5.167
HO_4.168              266                  1.0     0.8315                                                          # DATASET 6 - Observation 5.168
HO_4.169              266                  2.0     0.8065                                                          # DATASET 6 - Observation 5.169
HO_4.170              266                  3.0     0.7596                                                          # DATASET 6 - Observation 5.170
HO_4.171              266                  4.0     0.7407                                                          # DATASET 6 - Observation 5.171
HO_4.172              266                  5.0     0.7145                                                          # DATASET 6 - Observation 5.172
HO_4.173              266                  6.0     0.6983                                                          # DATASET 6 - Observation 5.173
HO_4.174              266                  7.0     0.8455                                                          # DATASET 6 - Observation 5.174
HO_4.175              266                  8.0     0.9842                                                          # DATASET 6 - Observation 5.175
HO_4.176              266                  9.0     0.9370                                                          # DATASET 6 - Observation 5.176
HO_4.177              266                 10.0     0.9089                                                          # DATASET 6 - Observation 5.177
HO_4.178              266                 11.0     0.8925                                                          # DATASET 6 - Observation 5.178