# AG package for MODFLOW-NWT generated by Flopy 3.3.5
OPTIONS
NOPRINT
IRRIGATION_DIVERSION 17 75
IRRIGATION_WELL 14 128
IRRIGATION_POND 27 8
MAXWELLS 14
PHIRAMP
ETDEMAND
WELLCBC 55
END
# segment list for irriagation diversions
SEGMENT LIST
100
74
80
83
93
88
90
END 
# ag well list
WELL LIST 
1   102   71   -7979.070187
1   106   61   -4142.842821
1   105   61   -1988.093724
1   104   60   -8894.081254
1   104   61   -11474.728929
1   103   59   -4351.037106
1   96   67   -28031.351795
1   99   61   -1289.972772
1   97   61   -9008.785244
1   98   62   -402.449703
1   89   59   -9033.233372
1   87   57   -3259.592384
1   83   49   -13838.150726
1   82   49   -9188.864169
END 
# ag pond list
POND LIST 
27131   141588.000000   106   0.333333
25883   52416.000000   104   0.500000
26122   22671.000000   106   0.333333
25619   2253.000000   106   0.333333
25613   15927.000000   101   1.000000
26117   18168.000000   102   1.000000
24867   8214.000000   104   0.500000
23842   6228.000000   97   0.500000
23335   39906.000000   97   0.500000
20302   2691.000000   72   0.200000
19294   5238.000000   72   0.200000
20057   4860.000000   72   0.200000
20301   12249.000000   72   0.200000
20299   612.000000   76   0.333333
20045   7776.000000   72   0.200000
20297   2400.000000   76   0.333333
19783   6816.000000   63   0.142857
19786   7947.000000   63   0.142857
19787   15273.000000   61   0.500000
19026   17850.000000   61   0.500000
19024   4905.000000   63   0.142857
20526   819.000000   63   0.142857
16986   1935.000000   63   0.142857
18508   5940.000000   63   0.142857
18763   4365.000000   63   0.142857
26899   954.000000   107   1.000000
20296   4608.000000   76   0.333333
END 
# ag stress period data
STRESS PERIOD 1
IRRDIVERSION 
5 
76   3   0   0
19790   1   1.000000   0.866146
20043   1   1.000000   0.073981
19789   1   1.000000   0.059872
88   4   0   0
22572   1   1.000000   0.147706
22573   1   1.000000   0.231278
22319   1   1.000000   0.329158
22320   1   1.000000   0.291857
90   2   0   0
23080   1   1.000000   0.593507
23081   1   1.000000   0.406493
97   13   0   0
24096   1   1.000000   0.068460
24097   1   1.000000   0.030937
23843   1   1.000000   0.153741
23336   1   1.000000   0.011573
23843   1   1.000000   0.052773
23842   1   1.000000   0.098203
23590   1   1.000000   0.126451
23591   1   1.000000   0.010205
23589   1   1.000000   0.040531
23589   1   1.000000   0.186829
23337   1   1.000000   0.044367
23590   1   1.000000   0.112614
23844   1   1.000000   0.063316
101   2   0   0
25615   1   1.000000   0.706292
25615   1   1.000000   0.293708
IRRWELL 
1 
51   2   0   0
22067   1   0.000000   0.395854
22320   1   0.000000   0.604146
IRRPOND 
1 
20296   5   0.000000   0.000000  1.000000
20042   0   1.000000   0.062542
20044   0   1.000000   0.008825
20296   0   1.000000   0.227607
20295   0   1.000000   0.027255
20043   0   1.000000   0.673772
END
STRESS PERIOD 2
IRRDIVERSION 
-1 
IRRWELL 
-1 
IRRPOND 
-1 
END
STRESS PERIOD 3
IRRDIVERSION 
-1 
IRRWELL 
-1 
IRRPOND 
-1 
END
STRESS PERIOD 4
IRRDIVERSION 
-1 
IRRWELL 
-1 
IRRPOND 
-1 
END
STRESS PERIOD 5
IRRDIVERSION 
17 
61   11   0   0
19281   1   1.000000   0.142360
19280   1   1.000000   0.293301
19534   1   1.000000   0.041537
19533   1   1.000000   0.046144
19534   1   1.000000   0.064209
19280   1   1.000000   0.039288
19534   1   1.000000   0.070486
19534   1   1.000000   0.081971
19281   1   1.000000   0.091107
19281   1   1.000000   0.035555
19533   1   1.000000   0.094042
63   63   0   0
19278   1   1.000000   0.003628
19280   1   1.000000   0.017044
19533   1   1.000000   0.022564
19279   1   1.000000   0.004239
19532   1   1.000000   0.004148
19532   1   1.000000   0.004473
19532   1   1.000000   0.017974
19532   1   1.000000   0.016016
19533   1   1.000000   0.012318
19025   1   1.000000   0.004746
19278   1   1.000000   0.009152
19278   1   1.000000   0.005892
19530   1   1.000000   0.006279
19531   1   1.000000   0.047932
19277   1   1.000000   0.002346
19785   1   1.000000   0.040666
19532   1   1.000000   0.066505
19533   1   1.000000   0.003912
19278   1   1.000000   0.006334
19786   1   1.000000   0.002099
19278   1   1.000000   0.069989
19025   1   1.000000   0.007706
19531   1   1.000000   0.025830
19026   1   1.000000   0.002562
19279   1   1.000000   0.031419
19532   1   1.000000   0.022540
19278   1   1.000000   0.006829
19785   1   1.000000   0.004581
19277   1   1.000000   0.001841
19279   1   1.000000   0.017579
19279   1   1.000000   0.034551
19279   1   1.000000   0.016203
19016   1   1.000000   0.003615
18763   1   1.000000   0.003940
18762   1   1.000000   0.002892
19016   1   1.000000   0.004313
19015   1   1.000000   0.012796
19015   1   1.000000   0.013677
18771   1   1.000000   0.001771
19024   1   1.000000   0.005440
19277   1   1.000000   0.002543
19024   1   1.000000   0.001962
19024   1   1.000000   0.009509
19024   1   1.000000   0.007750
19024   1   1.000000   0.006684
19026   1   1.000000   0.001730
19024   1   1.000000   0.010127
19280   1   1.000000   0.030096
19280   1   1.000000   0.003521
19280   1   1.000000   0.024047
18772   1   1.000000   0.080661
19279   1   1.000000   0.009078
19026   1   1.000000   0.006996
19279   1   1.000000   0.018436
19279   1   1.000000   0.002835
19280   1   1.000000   0.001872
19026   1   1.000000   0.013937
19280   1   1.000000   0.012546
19026   1   1.000000   0.061455
19026   1   1.000000   0.017272
19025   1   1.000000   0.085359
18771   1   1.000000   0.001568
19279   1   1.000000   0.001676
72   18   0   0
20304   1   1.000000   0.007881
20302   1   1.000000   0.031962
20303   1   1.000000   0.072068
20303   1   1.000000   0.018666
20301   1   1.000000   0.079676
20302   1   1.000000   0.192166
20046   1   1.000000   0.068978
20301   1   1.000000   0.038661
20048   1   1.000000   0.053352
20048   1   1.000000   0.051119
20302   1   1.000000   0.038107
20303   1   1.000000   0.015089
20302   1   1.000000   0.014429
20301   1   1.000000   0.091902
20303   1   1.000000   0.054885
20046   1   1.000000   0.037292
20046   1   1.000000   0.076242
19793   1   1.000000   0.057525
74   1   0   0
20550   1   1.000000   1.000000
76   24   0   0
19790   1   1.000000   0.237098
20046   1   1.000000   0.029619
20299   1   1.000000   0.021179
20299   1   1.000000   0.070995
20299   1   1.000000   0.078761
19787   1   1.000000   0.015611
20043   1   1.000000   0.020252
20040   1   1.000000   0.013634
20040   1   1.000000   0.041447
20040   1   1.000000   0.070000
20040   1   1.000000   0.066756
20040   1   1.000000   0.035148
19787   1   1.000000   0.025394
19787   1   1.000000   0.033552
20040   1   1.000000   0.032082
20040   1   1.000000   0.014224
19786   1   1.000000   0.011195
20039   1   1.000000   0.014327
20552   1   1.000000   0.058214
20553   1   1.000000   0.052777
20552   1   1.000000   0.013438
19789   1   1.000000   0.016389
19787   1   1.000000   0.021119
20293   1   1.000000   0.006790
80   26   0   0
21558   1   1.000000   0.030842
21303   1   1.000000   0.116650
21053   1   1.000000   0.018696
21556   1   1.000000   0.012560
21304   1   1.000000   0.097957
20798   1   1.000000   0.033575
20545   1   1.000000   0.031957
20545   1   1.000000   0.052015
20799   1   1.000000   0.061384
20545   1   1.000000   0.005811
20546   1   1.000000   0.135111
20798   1   1.000000   0.005792
22315   1   1.000000   0.009443
22314   1   1.000000   0.003645
21054   1   1.000000   0.019135
20798   1   1.000000   0.018224
21054   1   1.000000   0.013391
20801   1   1.000000   0.034096
21304   1   1.000000   0.084283
21305   1   1.000000   0.012742
21305   1   1.000000   0.016393
21304   1   1.000000   0.016261
21557   1   1.000000   0.100482
21053   1   1.000000   0.051804
21556   1   1.000000   0.012862
21558   1   1.000000   0.004887
83   34   0   0
21564   1   1.000000   0.065357
22071   1   1.000000   0.001995
21563   1   1.000000   0.005635
21817   1   1.000000   0.005872
21564   1   1.000000   0.008587
22071   1   1.000000   0.016516
21817   1   1.000000   0.021661
21818   1   1.000000   0.004116
21818   1   1.000000   0.017825
21818   1   1.000000   0.016438
21817   1   1.000000   0.009131
21817   1   1.000000   0.009076
21817   1   1.000000   0.028743
21565   1   1.000000   0.012017
21817   1   1.000000   0.022115
22070   1   1.000000   0.004406
21818   1   1.000000   0.060897
21055   1   1.000000   0.019066
21565   1   1.000000   0.014200
20805   1   1.000000   0.034145
20553   1   1.000000   0.006771
20552   1   1.000000   0.004083
20552   1   1.000000   0.005743
20551   1   1.000000   0.124147
20550   1   1.000000   0.064344
20804   1   1.000000   0.136410
20803   1   1.000000   0.040325
20552   1   1.000000   0.024586
21308   1   1.000000   0.073828
21310   1   1.000000   0.003792
21309   1   1.000000   0.072747
21563   1   1.000000   0.011901
21562   1   1.000000   0.036984
21307   1   1.000000   0.016541
88   18   0   0
22574   1   1.000000   0.034871
22322   1   1.000000   0.004658
22068   1   1.000000   0.029453
22067   1   1.000000   0.013176
22321   1   1.000000   0.122432
22069   1   1.000000   0.011740
22321   1   1.000000   0.062883
22321   1   1.000000   0.096286
22320   1   1.000000   0.037358
22572   1   1.000000   0.067981
22320   1   1.000000   0.020430
22069   1   1.000000   0.044575
22069   1   1.000000   0.005589
22068   1   1.000000   0.029656
21816   1   1.000000   0.026646
22573   1   1.000000   0.106445
22319   1   1.000000   0.151494
22320   1   1.000000   0.134326
90   8   0   0
23080   1   1.000000   0.047417
23080   1   1.000000   0.087067
23081   1   1.000000   0.078098
23081   1   1.000000   0.512798
23334   1   1.000000   0.025365
23081   1   1.000000   0.032476
23082   1   1.000000   0.042346
22829   1   1.000000   0.174431
93   13   0   0
23083   1   1.000000   0.033067
23337   1   1.000000   0.060799
23336   1   1.000000   0.070247
22829   1   1.000000   0.023464
23082   1   1.000000   0.300402
23083   1   1.000000   0.205564
22830   1   1.000000   0.003484
23335   1   1.000000   0.008462
22831   1   1.000000   0.019512
23337   1   1.000000   0.006748
23084   1   1.000000   0.160383
23336   1   1.000000   0.005454
22830   1   1.000000   0.102414
97   75   0   0
23587   1   1.000000   0.030750
24096   1   1.000000   0.024653
24097   1   1.000000   0.011141
23335   1   1.000000   0.010529
23843   1   1.000000   0.055363
23588   1   1.000000   0.006203
25364   1   1.000000   0.007422
25365   1   1.000000   0.001184
25112   1   1.000000   0.001169
25111   1   1.000000   0.003852
25112   1   1.000000   0.008830
25364   1   1.000000   0.002685
25365   1   1.000000   0.000931
25112   1   1.000000   0.003036
25365   1   1.000000   0.019094
25112   1   1.000000   0.009695
25365   1   1.000000   0.005063
23334   1   1.000000   0.070844
24859   1   1.000000   0.011785
25112   1   1.000000   0.039980
25113   1   1.000000   0.002382
24857   1   1.000000   0.001746
24854   1   1.000000   0.033596
25110   1   1.000000   0.004178
25110   1   1.000000   0.001387
25111   1   1.000000   0.026487
25110   1   1.000000   0.014052
25364   1   1.000000   0.012629
25363   1   1.000000   0.011858
25111   1   1.000000   0.020410
25112   1   1.000000   0.001325
25111   1   1.000000   0.003160
24858   1   1.000000   0.008970
24858   1   1.000000   0.009214
25111   1   1.000000   0.004005
24858   1   1.000000   0.008287
25111   1   1.000000   0.003310
25111   1   1.000000   0.003974
24858   1   1.000000   0.008674
25111   1   1.000000   0.002758
24858   1   1.000000   0.004745
24853   1   1.000000   0.009026
25366   1   1.000000   0.002895
23336   1   1.000000   0.004167
23843   1   1.000000   0.019004
23842   1   1.000000   0.035364
23590   1   1.000000   0.045536
23591   1   1.000000   0.003675
23589   1   1.000000   0.014595
23589   1   1.000000   0.067278
23337   1   1.000000   0.015977
23590   1   1.000000   0.040553
23338   1   1.000000   0.006277
23337   1   1.000000   0.005212
23338   1   1.000000   0.006459
23591   1   1.000000   0.025134
23844   1   1.000000   0.005268
23591   1   1.000000   0.011070
23842   1   1.000000   0.001723
23843   1   1.000000   0.011535
24096   1   1.000000   0.012380
24096   1   1.000000   0.007710
24095   1   1.000000   0.008548
23842   1   1.000000   0.013396
24095   1   1.000000   0.014735
23842   1   1.000000   0.007946
24600   1   1.000000   0.009596
24600   1   1.000000   0.005658
24601   1   1.000000   0.028413
23841   1   1.000000   0.002065
23842   1   1.000000   0.004634
23588   1   1.000000   0.001987
23334   1   1.000000   0.013584
23844   1   1.000000   0.022800
23333   1   1.000000   0.004449
100   8   0   0
25613   1   1.000000   0.008907
25107   1   1.000000   0.064829
25359   1   1.000000   0.178525
25360   1   1.000000   0.104590
25106   1   1.000000   0.149179
25612   1   1.000000   0.298557
25360   1   1.000000   0.041286
25359   1   1.000000   0.154127
101   28   0   0
25362   1   1.000000   0.021902
25363   1   1.000000   0.007448
25362   1   1.000000   0.056031
24854   1   1.000000   0.105425
25616   1   1.000000   0.026680
25614   1   1.000000   0.007170
25615   1   1.000000   0.038747
25361   1   1.000000   0.009187
25363   1   1.000000   0.026796
25617   1   1.000000   0.057056
25615   1   1.000000   0.033220
25364   1   1.000000   0.016434
25363   1   1.000000   0.054638
25616   1   1.000000   0.051988
25615   1   1.000000   0.013668
25615   1   1.000000   0.005684
24855   1   1.000000   0.059629
25360   1   1.000000   0.016711
25614   1   1.000000   0.003927
24853   1   1.000000   0.008393
25107   1   1.000000   0.047269
25107   1   1.000000   0.038683
24852   1   1.000000   0.071528
24853   1   1.000000   0.012944
24852   1   1.000000   0.063048
24853   1   1.000000   0.108144
25106   1   1.000000   0.025781
25106   1   1.000000   0.011866
102   14   0   0
26119   1   1.000000   0.085303
26117   1   1.000000   0.058111
26623   1   1.000000   0.054184
26624   1   1.000000   0.008791
26370   1   1.000000   0.038336
26118   1   1.000000   0.092117
26372   1   1.000000   0.118251
26370   1   1.000000   0.099956
26371   1   1.000000   0.113024
26372   1   1.000000   0.083062
26371   1   1.000000   0.066847
26371   1   1.000000   0.049108
26371   1   1.000000   0.077049
26118   1   1.000000   0.055862
104   73   0   0
25120   1   1.000000   0.009707
25373   1   1.000000   0.013668
25373   1   1.000000   0.013947
25373   1   1.000000   0.007039
25373   1   1.000000   0.009442
25626   1   1.000000   0.003190
25373   1   1.000000   0.009023
24612   1   1.000000   0.030702
24613   1   1.000000   0.008418
24866   1   1.000000   0.005753
25373   1   1.000000   0.008517
25117   1   1.000000   0.005366
25117   1   1.000000   0.011813
25117   1   1.000000   0.003754
24864   1   1.000000   0.007852
25373   1   1.000000   0.005689
25116   1   1.000000   0.018345
24864   1   1.000000   0.011555
25116   1   1.000000   0.008889
25626   1   1.000000   0.008947
25372   1   1.000000   0.061798
26132   1   1.000000   0.014505
26132   1   1.000000   0.038786
25878   1   1.000000   0.020957
25625   1   1.000000   0.004863
25878   1   1.000000   0.014540
25626   1   1.000000   0.003080
25879   1   1.000000   0.011450
25625   1   1.000000   0.006796
25879   1   1.000000   0.036507
25879   1   1.000000   0.016876
25879   1   1.000000   0.003404
25626   1   1.000000   0.010669
25879   1   1.000000   0.008176
25626   1   1.000000   0.002684
25625   1   1.000000   0.014894
25373   1   1.000000   0.012538
24864   1   1.000000   0.012468
24866   1   1.000000   0.004550
25120   1   1.000000   0.018386
25119   1   1.000000   0.033431
24866   1   1.000000   0.003829
25120   1   1.000000   0.011165
25119   1   1.000000   0.009655
24866   1   1.000000   0.007079
25119   1   1.000000   0.009181
25120   1   1.000000   0.008838
25119   1   1.000000   0.060668
25371   1   1.000000   0.007990
25119   1   1.000000   0.014239
25118   1   1.000000   0.013208
24865   1   1.000000   0.007144
25119   1   1.000000   0.054023
25118   1   1.000000   0.029211
24866   1   1.000000   0.011526
25120   1   1.000000   0.006267
24866   1   1.000000   0.035456
24867   1   1.000000   0.029815
25373   1   1.000000   0.008479
24867   1   1.000000   0.014293
25120   1   1.000000   0.013896
25120   1   1.000000   0.010376
25120   1   1.000000   0.006627
24864   1   1.000000   0.013698
24864   1   1.000000   0.013101
25373   1   1.000000   0.006815
25373   1   1.000000   0.004263
25120   1   1.000000   0.007463
25373   1   1.000000   0.002553
25373   1   1.000000   0.002516
25373   1   1.000000   0.008050
25373   1   1.000000   0.007816
25373   1   1.000000   0.007784
106   22   0   0
26624   1   1.000000   0.062103
26625   1   1.000000   0.176970
26878   1   1.000000   0.102137
26879   1   1.000000   0.007434
26624   1   1.000000   0.056820
25870   1   1.000000   0.005949
26372   1   1.000000   0.007960
26370   1   1.000000   0.008498
26121   1   1.000000   0.016696
26122   1   1.000000   0.052314
25870   1   1.000000   0.015400
25870   1   1.000000   0.099274
25870   1   1.000000   0.003306
25618   1   1.000000   0.048234
25617   1   1.000000   0.018464
25619   1   1.000000   0.007300
25618   1   1.000000   0.082528
25619   1   1.000000   0.070075
26623   1   1.000000   0.037087
26623   1   1.000000   0.020270
26374   1   1.000000   0.091056
27132   1   1.000000   0.010124
107   1   0   0
27404   1   1.000000   1.000000
IRRWELL 
14 
39   8   0   0
26626   1   0.000000   0.565513
26625   1   0.000000   0.040556
26879   1   0.000000   0.157663
26374   1   0.000000   0.033481
26372   1   0.000000   0.009831
26373   1   0.000000   0.066701
26372   1   0.000000   0.091623
26373   1   0.000000   0.034632
40   4   0   0
26373   1   0.000000   0.426960
26374   1   0.000000   0.213776
26373   1   0.000000   0.174877
26374   1   0.000000   0.184388
41   12   0   0
26372   1   0.000000   0.037301
26119   1   0.000000   0.037944
26373   1   0.000000   0.056867
26372   1   0.000000   0.018836
26120   1   0.000000   0.068000
26119   1   0.000000   0.019070
25867   1   0.000000   0.210211
26120   1   0.000000   0.104137
25866   1   0.000000   0.244890
26119   1   0.000000   0.112416
25865   1   0.000000   0.063012
26118   1   0.000000   0.027318
42   25   0   0
26121   1   0.000000   0.037566
26373   1   0.000000   0.005449
26121   1   0.000000   0.004009
26120   1   0.000000   0.044628
25867   1   0.000000   0.011697
25868   1   0.000000   0.150418
25869   1   0.000000   0.091819
26122   1   0.000000   0.087940
26121   1   0.000000   0.097924
25615   1   0.000000   0.084835
25867   1   0.000000   0.004845
25614   1   0.000000   0.007320
25868   1   0.000000   0.047227
25868   1   0.000000   0.002204
25616   1   0.000000   0.061883
25869   1   0.000000   0.021318
25615   1   0.000000   0.005779
25869   1   0.000000   0.010078
25616   1   0.000000   0.027634
25617   1   0.000000   0.043904
25869   1   0.000000   0.010536
25870   1   0.000000   0.013719
25616   1   0.000000   0.039488
25617   1   0.000000   0.069737
25870   1   0.000000   0.018043
38   67   0   0
25875   1   0.000000   0.077620
25875   1   0.000000   0.089628
25875   1   0.000000   0.014712
25875   1   0.000000   0.012087
25875   1   0.000000   0.005571
25876   1   0.000000   0.013155
25876   1   0.000000   0.012689
25876   1   0.000000   0.020904
25876   1   0.000000   0.019899
25875   1   0.000000   0.040658
25876   1   0.000000   0.009762
25876   1   0.000000   0.011092
25876   1   0.000000   0.010623
25876   1   0.000000   0.010906
25876   1   0.000000   0.010957
25876   1   0.000000   0.011370
25877   1   0.000000   0.010758
25876   1   0.000000   0.020344
25877   1   0.000000   0.005333
25877   1   0.000000   0.013105
25876   1   0.000000   0.021384
25877   1   0.000000   0.008120
25877   1   0.000000   0.005609
25876   1   0.000000   0.006498
25877   1   0.000000   0.058192
25876   1   0.000000   0.011409
25624   1   0.000000   0.026689
25877   1   0.000000   0.011236
25623   1   0.000000   0.006573
25876   1   0.000000   0.008323
25876   1   0.000000   0.007177
25876   1   0.000000   0.007912
25623   1   0.000000   0.005563
25623   1   0.000000   0.005411
25876   1   0.000000   0.008406
25623   1   0.000000   0.008165
25623   1   0.000000   0.006397
25876   1   0.000000   0.004142
25623   1   0.000000   0.013799
25622   1   0.000000   0.006275
25623   1   0.000000   0.010913
25622   1   0.000000   0.009002
25622   1   0.000000   0.014956
25622   1   0.000000   0.016295
25622   1   0.000000   0.005336
25622   1   0.000000   0.017229
25624   1   0.000000   0.005931
25624   1   0.000000   0.006794
25624   1   0.000000   0.005381
25624   1   0.000000   0.030830
25625   1   0.000000   0.020997
25625   1   0.000000   0.007121
25878   1   0.000000   0.027443
25877   1   0.000000   0.016542
25877   1   0.000000   0.013538
25878   1   0.000000   0.005951
25878   1   0.000000   0.007677
25877   1   0.000000   0.013791
25877   1   0.000000   0.015183
25878   1   0.000000   0.008368
25878   1   0.000000   0.007730
25877   1   0.000000   0.012897
25878   1   0.000000   0.009961
25877   1   0.000000   0.015778
25877   1   0.000000   0.009720
25878   1   0.000000   0.008267
25878   1   0.000000   0.017913
45   10   0   0
25865   1   0.000000   0.136412
25864   1   0.000000   0.088953
26118   1   0.000000   0.035399
26117   1   0.000000   0.032367
25865   1   0.000000   0.106489
25864   1   0.000000   0.121835
25359   1   0.000000   0.019072
25611   1   0.000000   0.263095
25358   1   0.000000   0.097272
25612   1   0.000000   0.099106
46   128   0   0
25113   1   0.000000   0.001068
25366   1   0.000000   0.007733
25113   1   0.000000   0.012593
25366   1   0.000000   0.004586
25113   1   0.000000   0.007169
25113   1   0.000000   0.001632
24860   1   0.000000   0.012944
24860   1   0.000000   0.015728
24859   1   0.000000   0.007226
24860   1   0.000000   0.002032
24862   1   0.000000   0.035436
24861   1   0.000000   0.037062
24608   1   0.000000   0.001592
24861   1   0.000000   0.004545
24860   1   0.000000   0.004111
24861   1   0.000000   0.009280
25114   1   0.000000   0.000874
24862   1   0.000000   0.005255
24608   1   0.000000   0.001154
24861   1   0.000000   0.006990
24609   1   0.000000   0.001760
24861   1   0.000000   0.001006
24862   1   0.000000   0.002501
25116   1   0.000000   0.002355
24862   1   0.000000   0.006171
24863   1   0.000000   0.005099
25115   1   0.000000   0.003013
24863   1   0.000000   0.012157
25116   1   0.000000   0.005622
24863   1   0.000000   0.011006
25116   1   0.000000   0.005527
24358   1   0.000000   0.002499
24611   1   0.000000   0.041630
24612   1   0.000000   0.004742
24612   1   0.000000   0.007829
24612   1   0.000000   0.003055
24611   1   0.000000   0.010376
24610   1   0.000000   0.035498
24610   1   0.000000   0.005987
24609   1   0.000000   0.005831
24610   1   0.000000   0.004716
24863   1   0.000000   0.002171
24610   1   0.000000   0.002661
24863   1   0.000000   0.003339
24863   1   0.000000   0.003052
24863   1   0.000000   0.001035
24356   1   0.000000   0.008818
24610   1   0.000000   0.004276
24609   1   0.000000   0.017593
24358   1   0.000000   0.003001
24610   1   0.000000   0.007550
24357   1   0.000000   0.003630
24610   1   0.000000   0.001567
24358   1   0.000000   0.002272
24357   1   0.000000   0.010440
24358   1   0.000000   0.001253
24357   1   0.000000   0.012708
24357   1   0.000000   0.013145
24357   1   0.000000   0.003581
24355   1   0.000000   0.006769
24356   1   0.000000   0.002044
24609   1   0.000000   0.002825
24608   1   0.000000   0.014196
24356   1   0.000000   0.034423
24103   1   0.000000   0.002060
24355   1   0.000000   0.008648
24355   1   0.000000   0.009904
24102   1   0.000000   0.008140
24103   1   0.000000   0.001995
24355   1   0.000000   0.001911
24356   1   0.000000   0.008009
24103   1   0.000000   0.003229
24104   1   0.000000   0.003486
24103   1   0.000000   0.003069
24357   1   0.000000   0.006453
24103   1   0.000000   0.002983
24102   1   0.000000   0.010874
24357   1   0.000000   0.005272
24357   1   0.000000   0.004224
24104   1   0.000000   0.002812
24104   1   0.000000   0.004454
24104   1   0.000000   0.004536
24104   1   0.000000   0.004523
24103   1   0.000000   0.005856
24104   1   0.000000   0.003883
24103   1   0.000000   0.003942
24104   1   0.000000   0.002784
23849   1   0.000000   0.020571
24102   1   0.000000   0.026249
23848   1   0.000000   0.001592
24102   1   0.000000   0.008244
23849   1   0.000000   0.006789
24102   1   0.000000   0.007800
23849   1   0.000000   0.006595
23849   1   0.000000   0.005878
24103   1   0.000000   0.005521
24102   1   0.000000   0.001770
24103   1   0.000000   0.006687
23850   1   0.000000   0.008578
24103   1   0.000000   0.006091
23850   1   0.000000   0.010415
24103   1   0.000000   0.002726
23850   1   0.000000   0.011126
23850   1   0.000000   0.011463
23850   1   0.000000   0.010459
23850   1   0.000000   0.008207
23851   1   0.000000   0.000906
24101   1   0.000000   0.002310
23848   1   0.000000   0.001632
24102   1   0.000000   0.002889
24354   1   0.000000   0.007711
24101   1   0.000000   0.033765
23848   1   0.000000   0.001798
24607   1   0.000000   0.006853
24606   1   0.000000   0.007859
24606   1   0.000000   0.001189
24607   1   0.000000   0.010487
24354   1   0.000000   0.044919
24607   1   0.000000   0.029994
24860   1   0.000000   0.003189
24608   1   0.000000   0.014934
24609   1   0.000000   0.002991
23597   1   0.000000   0.004293
23597   1   0.000000   0.006537
23851   1   0.000000   0.001904
23598   1   0.000000   0.009545
23851   1   0.000000   0.001046
23598   1   0.000000   0.003705
47   4   0   0
24602   1   0.000000   0.320203
24855   1   0.000000   0.180108
24603   1   0.000000   0.073918
24855   1   0.000000   0.425770
48   22   0   0
24348   1   0.000000   0.013646
24601   1   0.000000   0.146299
24600   1   0.000000   0.041601
24599   1   0.000000   0.137584
24852   1   0.000000   0.007383
24600   1   0.000000   0.032827
24599   1   0.000000   0.010649
24600   1   0.000000   0.017514
24600   1   0.000000   0.011907
24346   1   0.000000   0.169875
24599   1   0.000000   0.014014
24347   1   0.000000   0.011335
24348   1   0.000000   0.018605
24347   1   0.000000   0.052724
24347   1   0.000000   0.022932
24348   1   0.000000   0.116892
24347   1   0.000000   0.017830
24349   1   0.000000   0.091241
24096   1   0.000000   0.010810
24349   1   0.000000   0.019318
24349   1   0.000000   0.007166
24095   1   0.000000   0.027849
49   2   0   0
24603   1   0.000000   0.441052
24602   1   0.000000   0.558948
50   12   0   0
22070   1   0.000000   0.157592
22069   1   0.000000   0.064603
22575   1   0.000000   0.003555
22322   1   0.000000   0.061108
22323   1   0.000000   0.174167
22576   1   0.000000   0.049915
22577   1   0.000000   0.093800
22576   1   0.000000   0.064697
22071   1   0.000000   0.082409
22070   1   0.000000   0.060489
22324   1   0.000000   0.107033
22323   1   0.000000   0.080632
51   16   0   0
22068   1   0.000000   0.250672
21816   1   0.000000   0.055749
22069   1   0.000000   0.095003
21815   1   0.000000   0.090258
22067   1   0.000000   0.096889
22320   1   0.000000   0.147871
22315   1   0.000000   0.031431
22568   1   0.000000   0.028769
22315   1   0.000000   0.033391
22568   1   0.000000   0.028364
22568   1   0.000000   0.027029
22315   1   0.000000   0.032367
22316   1   0.000000   0.027490
22569   1   0.000000   0.016334
22316   1   0.000000   0.026271
22569   1   0.000000   0.012113
52   45   0   0
21048   1   0.000000   0.013228
21301   1   0.000000   0.085283
21300   1   0.000000   0.027112
21047   1   0.000000   0.012250
21301   1   0.000000   0.039432
21049   1   0.000000   0.022991
21302   1   0.000000   0.080519
21048   1   0.000000   0.006399
21554   1   0.000000   0.027013
21555   1   0.000000   0.051387
21301   1   0.000000   0.009408
21302   1   0.000000   0.018161
21301   1   0.000000   0.014142
21554   1   0.000000   0.034999
21300   1   0.000000   0.008268
21553   1   0.000000   0.025824
21554   1   0.000000   0.004971
21555   1   0.000000   0.013548
21554   1   0.000000   0.007235
21555   1   0.000000   0.021983
21807   1   0.000000   0.001987
21554   1   0.000000   0.002492
21555   1   0.000000   0.008278
21808   1   0.000000   0.016019
21554   1   0.000000   0.012326
21554   1   0.000000   0.011789
21554   1   0.000000   0.012599
21807   1   0.000000   0.009645
21554   1   0.000000   0.007329
21807   1   0.000000   0.021453
21553   1   0.000000   0.003590
21303   1   0.000000   0.085865
21050   1   0.000000   0.004599
21049   1   0.000000   0.010647
21302   1   0.000000   0.062509
21556   1   0.000000   0.006366
21556   1   0.000000   0.007539
22313   1   0.000000   0.021303
20798   1   0.000000   0.011459
20544   1   0.000000   0.028263
20545   1   0.000000   0.013858
20797   1   0.000000   0.011168
20542   1   0.000000   0.017530
20543   1   0.000000   0.074424
20544   1   0.000000   0.012808
53   30   0   0
20540   1   0.000000   0.031318
20541   1   0.000000   0.029670
20037   1   0.000000   0.008324
20292   1   0.000000   0.007240
20291   1   0.000000   0.131720
20290   1   0.000000   0.077041
20038   1   0.000000   0.044011
20037   1   0.000000   0.013814
20039   1   0.000000   0.003043
20292   1   0.000000   0.025174
20291   1   0.000000   0.036543
20038   1   0.000000   0.034533
20039   1   0.000000   0.040673
20038   1   0.000000   0.033076
19786   1   0.000000   0.036020
19785   1   0.000000   0.091389
19784   1   0.000000   0.055133
19785   1   0.000000   0.041779
20038   1   0.000000   0.037410
19531   1   0.000000   0.046430
20039   1   0.000000   0.008978
19786   1   0.000000   0.016394
19786   1   0.000000   0.034239
20039   1   0.000000   0.025886
20039   1   0.000000   0.017497
20039   1   0.000000   0.015572
20039   1   0.000000   0.009503
20039   1   0.000000   0.015501
20039   1   0.000000   0.017810
20040   1   0.000000   0.014277
IRRPOND 
27 