pcf
* control data
             restart          estimation
       409       210         9         0         4         0
         1         1              single               point         1         0         0          noobsreref
   2.000000E+01  -3.000000E+00   3.000000E-01   1.000000E-02        -7       999          lamforgive        noderforgive
   1.000000E+01   1.000000E+01   1.000000E-03         0         0
   1.000000E-01         1   1.100000E+00               noaui          nosenreuse        noboundscale
        30   1.000000E-02         3         3   1.000000E-02         3   0.000000E+00         1  -1.000000E+00
         0         0         0         0             jcosave          verboserec          jcosaveitn          reisaveitn          parsaveitn        noparsaverun
* singular value decomposition
         1
  10000000    1.000000E-06
1
* parameter groups
 upw_ks                  relative              1.0000000000E-02       0.0  always_3              2.0000000000E+00       parabolic             1.0000000000E-05      5.0000000000E-01       smaller              
 uzf_vks                 relative              1.0000000000E-02       0.0  always_3              2.0000000000E+00       parabolic             1.0000000000E-05      5.0000000000E-01       smaller              
 uzf_surfk               relative              1.0000000000E-02       0.0  always_3              2.0000000000E+00       parabolic             1.0000000000E-05      5.0000000000E-01       smaller              
 sfr_ks                  relative              1.0000000000E-02       0.0  always_3              2.0000000000E+00       parabolic             1.0000000000E-05      5.0000000000E-01       smaller              
 uzf_finf                relative              1.0000000000E-02       0.0  always_3              2.0000000000E+00       parabolic             1.0000000000E-05      5.0000000000E-01       smaller              
 upw_vka                 relative              1.0000000000E-02       0.0  always_3              2.0000000000E+00       parabolic             1.0000000000E-05      5.0000000000E-01       smaller              
 sfr_spil                relative              1.0000000000E-02       0.0  always_3              2.0000000000E+00       parabolic             1.0000000000E-05      5.0000000000E-01       smaller              
 lak_cd                  relative              1.0000000000E-02       0.0  always_3              2.0000000000E+00       parabolic             1.0000000000E-05      5.0000000000E-01       smaller              
 uzf_pet                 relative              1.0000000000E-02       0.0  always_3              2.0000000000E+00       parabolic             1.0000000000E-05      5.0000000000E-01       smaller              
* parameter data
 finf_1                 none                   factor                5.3702925000E-01      1.0000000000E-02      1.0000000000E+00       uzf_finf              1.0000000000E+00      0.0000000000E+00      1          
 finf_10                none                   factor                7.3036572000E-02      1.0000000000E-02      1.0000000000E+00       uzf_finf              1.0000000000E+00      0.0000000000E+00      1          
 finf_11                none                   factor                7.5911912000E-01      1.0000000000E-02      1.0000000000E+00       uzf_finf              1.0000000000E+00      0.0000000000E+00      1          
 finf_12                none                   factor                1.1280494000E-02      1.0000000000E-02      1.0000000000E+00       uzf_finf              1.0000000000E+00      0.0000000000E+00      1          
 finf_13                none                   factor                5.5490546000E-01      1.0000000000E-02      1.0000000000E+00       uzf_finf              1.0000000000E+00      0.0000000000E+00      1          
 finf_14                none                   factor                2.6466946000E-01      1.0000000000E-02      1.0000000000E+00       uzf_finf              1.0000000000E+00      0.0000000000E+00      1          
 finf_15                none                   factor                9.4980584000E-01      1.0000000000E-02      1.0000000000E+00       uzf_finf              1.0000000000E+00      0.0000000000E+00      1          
 finf_16                none                   factor                3.1932641000E-01      1.0000000000E-02      1.0000000000E+00       uzf_finf              1.0000000000E+00      0.0000000000E+00      1          
 finf_17                none                   factor                1.0000000000E+00      1.0000000000E-02      1.0000000000E+00       uzf_finf              1.0000000000E+00      0.0000000000E+00      1          
 finf_18                none                   factor                1.0000000000E+00      1.0000000000E-02      1.0000000000E+00       uzf_finf              1.0000000000E+00      0.0000000000E+00      1          
 finf_19                none                   factor                6.2515554000E-01      1.0000000000E-02      1.0000000000E+00       uzf_finf              1.0000000000E+00      0.0000000000E+00      1          
 finf_2                 none                   factor                5.4735584000E-01      1.0000000000E-02      1.0000000000E+00       uzf_finf              1.0000000000E+00      0.0000000000E+00      1          
 finf_20                none                   factor                5.5034984000E-01      1.0000000000E-02      1.0000000000E+00       uzf_finf              1.0000000000E+00      0.0000000000E+00      1          
 finf_21                none                   factor                4.8973652000E-01      1.0000000000E-02      1.0000000000E+00       uzf_finf              1.0000000000E+00      0.0000000000E+00      1          
 finf_22                none                   factor                2.5126899000E-01      1.0000000000E-02      1.0000000000E+00       uzf_finf              1.0000000000E+00      0.0000000000E+00      1          
 finf_3                 none                   factor                9.7993478000E-01      1.0000000000E-02      1.0000000000E+00       uzf_finf              1.0000000000E+00      0.0000000000E+00      1          
 finf_4                 none                   factor                9.9398629000E-01      1.0000000000E-02      1.0000000000E+00       uzf_finf              1.0000000000E+00      0.0000000000E+00      1          
 finf_5                 none                   factor                2.6123422000E-02      1.0000000000E-02      1.0000000000E+00       uzf_finf              1.0000000000E+00      0.0000000000E+00      1          
 finf_6                 none                   factor                4.9693017000E-01      1.0000000000E-02      1.0000000000E+00       uzf_finf              1.0000000000E+00      0.0000000000E+00      1          
 finf_7                 none                   factor                7.3773431000E-01      1.0000000000E-02      1.0000000000E+00       uzf_finf              1.0000000000E+00      0.0000000000E+00      1          
 finf_8                 none                   factor                7.8870059000E-01      1.0000000000E-02      1.0000000000E+00       uzf_finf              1.0000000000E+00      0.0000000000E+00      1          
 finf_9                 none                   factor                6.9935550000E-01      1.0000000000E-02      1.0000000000E+00       uzf_finf              1.0000000000E+00      0.0000000000E+00      1          
 ks_1                   log                    factor                1.2206154000E+02      1.0000000000E-05      5.0000000000E+03       upw_ks                1.0000000000E+00      0.0000000000E+00      1          
 ks_10                  log                    factor                1.5009016000E+00      1.0000000000E-05      5.0000000000E+03       upw_ks                1.0000000000E+00      0.0000000000E+00      1          
 ks_100                 log                    factor                2.4833938000E-04      1.0000000000E-05      5.0000000000E+03       upw_ks                1.0000000000E+00      0.0000000000E+00      1          
 ks_101                 log                    factor                1.1531807000E-04      1.0000000000E-05      5.0000000000E+03       upw_ks                1.0000000000E+00      0.0000000000E+00      1          
 ks_102                 log                    factor                8.0799556000E-05      1.0000000000E-05      5.0000000000E+03       upw_ks                1.0000000000E+00      0.0000000000E+00      1          
 ks_103                 log                    factor                9.8407366000E-05      1.0000000000E-05      5.0000000000E+03       upw_ks                1.0000000000E+00      0.0000000000E+00      1          
 ks_104                 log                    factor                8.7250003000E-05      1.0000000000E-05      5.0000000000E+03       upw_ks                1.0000000000E+00      0.0000000000E+00      1          
 ks_105                 log                    factor                9.5602545000E-05      1.0000000000E-05      5.0000000000E+03       upw_ks                1.0000000000E+00      0.0000000000E+00      1          
 ks_106                 log                    factor                1.0803242000E-04      1.0000000000E-05      5.0000000000E+03       upw_ks                1.0000000000E+00      0.0000000000E+00      1          
 ks_107                 log                    factor                1.8825611000E-04      1.0000000000E-05      5.0000000000E+03       upw_ks                1.0000000000E+00      0.0000000000E+00      1          
 ks_108                 log                    factor                5.9618115000E+00      1.0000000000E-05      5.0000000000E+03       upw_ks                1.0000000000E+00      0.0000000000E+00      1          
 ks_109                 log                    factor                5.1113490000E+00      1.0000000000E-05      5.0000000000E+03       upw_ks                1.0000000000E+00      0.0000000000E+00      1          
 ks_11                  log                    factor                6.8220379000E+00      1.0000000000E-05      5.0000000000E+03       upw_ks                1.0000000000E+00      0.0000000000E+00      1          
 ks_110                 log                    factor                5.9588713000E+00      1.0000000000E-05      5.0000000000E+03       upw_ks                1.0000000000E+00      0.0000000000E+00      1          
 ks_111                 log                    factor                4.2196157000E+00      1.0000000000E-05      5.0000000000E+03       upw_ks                1.0000000000E+00      0.0000000000E+00      1          
 ks_112                 log                    factor                3.7842664000E+00      1.0000000000E-05      5.0000000000E+03       upw_ks                1.0000000000E+00      0.0000000000E+00      1          
 ks_113                 log                    factor                5.2875234000E-01      1.0000000000E-05      5.0000000000E+03       upw_ks                1.0000000000E+00      0.0000000000E+00      1          
 ks_114                 log                    factor                4.7192528000E+00      1.0000000000E-05      5.0000000000E+03       upw_ks                1.0000000000E+00      0.0000000000E+00      1          
 ks_115                 log                    factor                3.7976431000E+00      1.0000000000E-05      5.0000000000E+03       upw_ks                1.0000000000E+00      0.0000000000E+00      1          
 ks_116                 log                    factor                1.8435420000E+00      1.0000000000E-05      5.0000000000E+03       upw_ks                1.0000000000E+00      0.0000000000E+00      1          
 ks_117                 log                    factor                1.1036833000E+01      1.0000000000E-05      5.0000000000E+03       upw_ks                1.0000000000E+00      0.0000000000E+00      1          
 ks_118                 log                    factor                2.0135350000E+00      1.0000000000E-05      5.0000000000E+03       upw_ks                1.0000000000E+00      0.0000000000E+00      1          
 ks_119                 log                    factor                6.4284464000E+00      1.0000000000E-05      5.0000000000E+03       upw_ks                1.0000000000E+00      0.0000000000E+00      1          
 ks_12                  log                    factor                7.2750020000E+00      1.0000000000E-05      5.0000000000E+03       upw_ks                1.0000000000E+00      0.0000000000E+00      1          
 ks_120                 log                    factor                4.8004379000E+00      1.0000000000E-05      5.0000000000E+03       upw_ks                1.0000000000E+00      0.0000000000E+00      1          
 ks_121                 log                    factor                1.7405898000E+00      1.0000000000E-05      5.0000000000E+03       upw_ks                1.0000000000E+00      0.0000000000E+00      1          
 ks_122                 log                    factor                4.4498689000E+01      1.0000000000E-05      5.0000000000E+03       upw_ks                1.0000000000E+00      0.0000000000E+00      1          
 ks_123                 log                    factor                2.3733606000E+01      1.0000000000E-05      5.0000000000E+03       upw_ks                1.0000000000E+00      0.0000000000E+00      1          
 ks_124                 log                    factor                2.2171483000E+00      1.0000000000E-05      5.0000000000E+03       upw_ks                1.0000000000E+00      0.0000000000E+00      1          
 ks_125                 log                    factor                1.8276476000E+01      1.0000000000E-05      5.0000000000E+03       upw_ks                1.0000000000E+00      0.0000000000E+00      1          
 ks_126                 log                    factor                9.1383067000E+00      1.0000000000E-05      5.0000000000E+03       upw_ks                1.0000000000E+00      0.0000000000E+00      1          
 ks_127                 log                    factor                2.2030482000E+00      1.0000000000E-05      5.0000000000E+03       upw_ks                1.0000000000E+00      0.0000000000E+00      1          
 ks_128                 log                    factor                5.2130434000E+00      1.0000000000E-05      5.0000000000E+03       upw_ks                1.0000000000E+00      0.0000000000E+00      1          
 ks_129                 log                    factor                5.9932464000E+00      1.0000000000E-05      5.0000000000E+03       upw_ks                1.0000000000E+00      0.0000000000E+00      1          
 ks_13                  log                    factor                4.2583267000E+00      1.0000000000E-05      5.0000000000E+03       upw_ks                1.0000000000E+00      0.0000000000E+00      1          
 ks_130                 log                    factor                1.8712013000E+00      1.0000000000E-05      5.0000000000E+03       upw_ks                1.0000000000E+00      0.0000000000E+00      1          
 ks_131                 log                    factor                2.0035172000E-04      1.0000000000E-05      5.0000000000E+03       upw_ks                1.0000000000E+00      0.0000000000E+00      1          
 ks_132                 log                    factor                2.0002771000E-04      1.0000000000E-05      5.0000000000E+03       upw_ks                1.0000000000E+00      0.0000000000E+00      1          
 ks_133                 log                    factor                2.0206598000E-04      1.0000000000E-05      5.0000000000E+03       upw_ks                1.0000000000E+00      0.0000000000E+00      1          
 ks_134                 log                    factor                2.9586338000E-02      1.0000000000E-05      5.0000000000E+03       upw_ks                1.0000000000E+00      0.0000000000E+00      1          
 ks_135                 log                    factor                1.7583935000E-04      1.0000000000E-05      5.0000000000E+03       upw_ks                1.0000000000E+00      0.0000000000E+00      1          
 ks_136                 log                    factor                1.9997636000E-04      1.0000000000E-05      5.0000000000E+03       upw_ks                1.0000000000E+00      0.0000000000E+00      1          
 ks_137                 log                    factor                9.0831765000E-03      1.0000000000E-05      5.0000000000E+03       upw_ks                1.0000000000E+00      0.0000000000E+00      1          
 ks_138                 log                    factor                5.9143612000E+00      1.0000000000E-05      5.0000000000E+03       upw_ks                1.0000000000E+00      0.0000000000E+00      1          
 ks_139                 log                    factor                2.0118489000E-04      1.0000000000E-05      5.0000000000E+03       upw_ks                1.0000000000E+00      0.0000000000E+00      1          
 ks_14                  log                    factor                2.1396351000E+00      1.0000000000E-05      5.0000000000E+03       upw_ks                1.0000000000E+00      0.0000000000E+00      1          
 ks_140                 log                    factor                4.4317669000E+00      1.0000000000E-05      5.0000000000E+03       upw_ks                1.0000000000E+00      0.0000000000E+00      1          
 ks_141                 log                    factor                1.9711488000E-04      1.0000000000E-05      5.0000000000E+03       upw_ks                1.0000000000E+00      0.0000000000E+00      1          
 ks_142                 log                    factor                1.9990813000E-04      1.0000000000E-05      5.0000000000E+03       upw_ks                1.0000000000E+00      0.0000000000E+00      1          
 ks_143                 log                    factor                1.9914258000E-03      1.0000000000E-05      5.0000000000E+03       upw_ks                1.0000000000E+00      0.0000000000E+00      1          
 ks_144                 log                    factor                9.7514462000E-01      1.0000000000E-05      5.0000000000E+03       upw_ks                1.0000000000E+00      0.0000000000E+00      1          
 ks_145                 log                    factor                5.9218193000E+00      1.0000000000E-05      5.0000000000E+03       upw_ks                1.0000000000E+00      0.0000000000E+00      1          
 ks_146                 log                    factor                5.9696454000E+00      1.0000000000E-05      5.0000000000E+03       upw_ks                1.0000000000E+00      0.0000000000E+00      1          
 ks_147                 log                    factor                5.7001796000E+00      1.0000000000E-05      5.0000000000E+03       upw_ks                1.0000000000E+00      0.0000000000E+00      1          
 ks_148                 log                    factor                6.0014071000E+00      1.0000000000E-05      5.0000000000E+03       upw_ks                1.0000000000E+00      0.0000000000E+00      1          
 ks_149                 log                    factor                1.9994077000E-04      1.0000000000E-05      5.0000000000E+03       upw_ks                1.0000000000E+00      0.0000000000E+00      1          
 ks_15                  log                    factor                4.1170125000E+00      1.0000000000E-05      5.0000000000E+03       upw_ks                1.0000000000E+00      0.0000000000E+00      1          
 ks_150                 log                    factor                7.0272131000E+00      1.0000000000E-05      5.0000000000E+03       upw_ks                1.0000000000E+00      0.0000000000E+00      1          
 ks_151                 log                    factor                6.0095427000E+00      1.0000000000E-05      5.0000000000E+03       upw_ks                1.0000000000E+00      0.0000000000E+00      1          
 ks_152                 log                    factor                6.0485082000E+00      1.0000000000E-05      5.0000000000E+03       upw_ks                1.0000000000E+00      0.0000000000E+00      1          
 ks_153                 log                    factor                2.0549218000E+01      1.0000000000E-05      5.0000000000E+03       upw_ks                1.0000000000E+00      0.0000000000E+00      1          
 ks_154                 log                    factor                5.6083603000E-01      1.0000000000E-05      5.0000000000E+03       upw_ks                1.0000000000E+00      0.0000000000E+00      1          
 ks_155                 log                    factor                1.9181489000E-04      1.0000000000E-05      5.0000000000E+03       upw_ks                1.0000000000E+00      0.0000000000E+00      1          
 ks_156                 log                    factor                7.7955226000E-02      1.0000000000E-05      5.0000000000E+03       upw_ks                1.0000000000E+00      0.0000000000E+00      1          
 ks_157                 log                    factor                6.0396746000E-01      1.0000000000E-05      5.0000000000E+03       upw_ks                1.0000000000E+00      0.0000000000E+00      1          
 ks_158                 log                    factor                4.0800616000E-01      1.0000000000E-05      5.0000000000E+03       upw_ks                1.0000000000E+00      0.0000000000E+00      1          
 ks_159                 log                    factor                5.6817124000E-02      1.0000000000E-05      5.0000000000E+03       upw_ks                1.0000000000E+00      0.0000000000E+00      1          
 ks_16                  log                    factor                2.1188533000E+00      1.0000000000E-05      5.0000000000E+03       upw_ks                1.0000000000E+00      0.0000000000E+00      1          
 ks_160                 log                    factor                9.9785215000E-02      1.0000000000E-05      5.0000000000E+03       upw_ks                1.0000000000E+00      0.0000000000E+00      1          
 ks_161                 log                    factor                3.6453812000E+01      1.0000000000E-05      5.0000000000E+03       upw_ks                1.0000000000E+00      0.0000000000E+00      1          
 ks_162                 log                    factor                2.5186396000E-01      1.0000000000E-05      5.0000000000E+03       upw_ks                1.0000000000E+00      0.0000000000E+00      1          
 ks_163                 log                    factor                6.8836854000E-02      1.0000000000E-05      5.0000000000E+03       upw_ks                1.0000000000E+00      0.0000000000E+00      1          
 ks_164                 log                    factor                5.2661318000E-02      1.0000000000E-05      5.0000000000E+03       upw_ks                1.0000000000E+00      0.0000000000E+00      1          
 ks_165                 log                    factor                7.5893791000E+00      1.0000000000E-05      5.0000000000E+03       upw_ks                1.0000000000E+00      0.0000000000E+00      1          
 ks_166                 log                    factor                1.5346384000E-02      1.0000000000E-05      5.0000000000E+03       upw_ks                1.0000000000E+00      0.0000000000E+00      1          
 ks_167                 log                    factor                5.2027943000E-02      1.0000000000E-05      5.0000000000E+03       upw_ks                1.0000000000E+00      0.0000000000E+00      1          
 ks_168                 log                    factor                4.4096601000E-01      1.0000000000E-05      5.0000000000E+03       upw_ks                1.0000000000E+00      0.0000000000E+00      1          
 ks_169                 log                    factor                1.6104940000E-04      1.0000000000E-05      5.0000000000E+03       upw_ks                1.0000000000E+00      0.0000000000E+00      1          
 ks_17                  log                    factor                6.3384043000E+00      1.0000000000E-05      5.0000000000E+03       upw_ks                1.0000000000E+00      0.0000000000E+00      1          
 ks_170                 log                    factor                2.0320976000E-03      1.0000000000E-05      5.0000000000E+03       upw_ks                1.0000000000E+00      0.0000000000E+00      1          
 ks_171                 log                    factor                1.0252365000E+00      1.0000000000E-05      5.0000000000E+03       upw_ks                1.0000000000E+00      0.0000000000E+00      1          
 ks_172                 log                    factor                1.9361203000E-02      1.0000000000E-05      5.0000000000E+03       upw_ks                1.0000000000E+00      0.0000000000E+00      1          
 ks_173                 log                    factor                1.9494297000E-02      1.0000000000E-05      5.0000000000E+03       upw_ks                1.0000000000E+00      0.0000000000E+00      1          
 ks_174                 log                    factor                6.0107162000E+00      1.0000000000E-05      5.0000000000E+03       upw_ks                1.0000000000E+00      0.0000000000E+00      1          
 ks_175                 log                    factor                1.2517600000E-01      1.0000000000E-05      5.0000000000E+03       upw_ks                1.0000000000E+00      0.0000000000E+00      1          
 ks_176                 log                    factor                4.5465244000E-03      1.0000000000E-05      5.0000000000E+03       upw_ks                1.0000000000E+00      0.0000000000E+00      1          
 ks_177                 log                    factor                9.7949983000E-01      1.0000000000E-05      5.0000000000E+03       upw_ks                1.0000000000E+00      0.0000000000E+00      1          
 ks_178                 log                    factor                2.0014082000E-04      1.0000000000E-05      5.0000000000E+03       upw_ks                1.0000000000E+00      0.0000000000E+00      1          
 ks_179                 log                    factor                3.2145844000E+00      1.0000000000E-05      5.0000000000E+03       upw_ks                1.0000000000E+00      0.0000000000E+00      1          
 ks_18                  log                    factor                5.9850069000E+00      1.0000000000E-05      5.0000000000E+03       upw_ks                1.0000000000E+00      0.0000000000E+00      1          
 ks_180                 log                    factor                2.3477659000E-04      1.0000000000E-05      5.0000000000E+03       upw_ks                1.0000000000E+00      0.0000000000E+00      1          
 ks_181                 log                    factor                4.3389517000E-01      1.0000000000E-05      5.0000000000E+03       upw_ks                1.0000000000E+00      0.0000000000E+00      1          
 ks_182                 log                    factor                5.9767770000E+00      1.0000000000E-05      5.0000000000E+03       upw_ks                1.0000000000E+00      0.0000000000E+00      1          
 ks_183                 log                    factor                1.0000120000E+00      1.0000000000E-05      5.0000000000E+03       upw_ks                1.0000000000E+00      0.0000000000E+00      1          
 ks_184                 log                    factor                1.0062211000E-04      1.0000000000E-05      5.0000000000E+03       upw_ks                1.0000000000E+00      0.0000000000E+00      1          
 ks_185                 log                    factor                9.9854156000E-05      1.0000000000E-05      5.0000000000E+03       upw_ks                1.0000000000E+00      0.0000000000E+00      1          
 ks_186                 log                    factor                9.7460301000E-05      1.0000000000E-05      5.0000000000E+03       upw_ks                1.0000000000E+00      0.0000000000E+00      1          
 ks_187                 log                    factor                1.0757531000E-04      1.0000000000E-05      5.0000000000E+03       upw_ks                1.0000000000E+00      0.0000000000E+00      1          
 ks_188                 log                    factor                1.0012557000E-04      1.0000000000E-05      5.0000000000E+03       upw_ks                1.0000000000E+00      0.0000000000E+00      1          
 ks_189                 log                    factor                9.9960076000E-05      1.0000000000E-05      5.0000000000E+03       upw_ks                1.0000000000E+00      0.0000000000E+00      1          
 ks_19                  log                    factor                4.3525288000E+00      1.0000000000E-05      5.0000000000E+03       upw_ks                1.0000000000E+00      0.0000000000E+00      1          
 ks_190                 log                    factor                1.0000000000E-05      1.0000000000E-05      5.0000000000E+03       upw_ks                1.0000000000E+00      0.0000000000E+00      1          
 ks_191                 log                    factor                1.0001309000E-04      1.0000000000E-05      5.0000000000E+03       upw_ks                1.0000000000E+00      0.0000000000E+00      1          
 ks_192                 log                    factor                1.2642860000E-04      1.0000000000E-05      5.0000000000E+03       upw_ks                1.0000000000E+00      0.0000000000E+00      1          
 ks_193                 log                    factor                1.0000000000E-05      1.0000000000E-05      5.0000000000E+03       upw_ks                1.0000000000E+00      0.0000000000E+00      1          