pcf
* control data
             restart          estimation
       409       210         9         0         4         0
         1         1              single               point         1         0         0          noobsreref
   2.000000E+01  -3.000000E+00   3.000000E-01   1.000000E-02        -7       999          lamforgive        noderforgive
   1.000000E+01   1.000000E+01   1.000000E-03         0         0
   1.000000E-01         1   1.100000E+00               noaui          nosenreuse        noboundscale
        30   1.000000E-02         3         3   1.000000E-02         3   0.000000E+00         1  -1.000000E+00
         0         0         0         0             jcosave          verboserec          jcosaveitn          reisaveitn          parsaveitn        noparsaverun
* singular value decomposition
         1
  10000000    1.000000E-06
1
* parameter groups
 upw_ks                  relative              1.0000000000E-02       0.0  always_3              2.0000000000E+00       parabolic             1.0000000000E-05      5.0000000000E-01       smaller              
 uzf_vks                 relative              1.0000000000E-02       0.0  always_3              2.0000000000E+00       parabolic             1.0000000000E-05      5.0000000000E-01       smaller              
 uzf_surfk               relative              1.0000000000E-02       0.0  always_3              2.0000000000E+00       parabolic             1.0000000000E-05      5.0000000000E-01       smaller              
 sfr_ks                  relative              1.0000000000E-02       0.0  always_3              2.0000000000E+00       parabolic             1.0000000000E-05      5.0000000000E-01       smaller              
 uzf_finf                relative              1.0000000000E-02       0.0  always_3              2.0000000000E+00       parabolic             1.0000000000E-05      5.0000000000E-01       smaller              
 upw_vka                 relative              1.0000000000E-02       0.0  always_3              2.0000000000E+00       parabolic             1.0000000000E-05      5.0000000000E-01       smaller              
 sfr_spil                relative              1.0000000000E-02       0.0  always_3              2.0000000000E+00       parabolic             1.0000000000E-05      5.0000000000E-01       smaller              
 lak_cd                  relative              1.0000000000E-02       0.0  always_3              2.0000000000E+00       parabolic             1.0000000000E-05      5.0000000000E-01       smaller              
 uzf_pet                 relative              1.0000000000E-02       0.0  always_3              2.0000000000E+00       parabolic             1.0000000000E-05      5.0000000000E-01       smaller              
* parameter data
 finf_1                 none                   factor                5.3608193000E-01      1.0000000000E-02      1.0000000000E+00       uzf_finf              1.0000000000E+00      0.0000000000E+00      1          
 finf_10                none                   factor                6.0210887000E-02      1.0000000000E-02      1.0000000000E+00       uzf_finf              1.0000000000E+00      0.0000000000E+00      1          
 finf_11                none                   factor                7.7161043000E-01      1.0000000000E-02      1.0000000000E+00       uzf_finf              1.0000000000E+00      0.0000000000E+00      1          
 finf_12                none                   factor                1.1306033000E-01      1.0000000000E-02      1.0000000000E+00       uzf_finf              1.0000000000E+00      0.0000000000E+00      1          
 finf_13                none                   factor                5.5071552000E-01      1.0000000000E-02      1.0000000000E+00       uzf_finf              1.0000000000E+00      0.0000000000E+00      1          
 finf_14                none                   factor                1.9946328000E-01      1.0000000000E-02      1.0000000000E+00       uzf_finf              1.0000000000E+00      0.0000000000E+00      1          
 finf_15                none                   factor                1.0000000000E+00      1.0000000000E-02      1.0000000000E+00       uzf_finf              1.0000000000E+00      0.0000000000E+00      1          
 finf_16                none                   factor                3.7874515000E-01      1.0000000000E-02      1.0000000000E+00       uzf_finf              1.0000000000E+00      0.0000000000E+00      1          
 finf_17                none                   factor                9.5054981000E-01      1.0000000000E-02      1.0000000000E+00       uzf_finf              1.0000000000E+00      0.0000000000E+00      1          
 finf_18                none                   factor                1.0000000000E+00      1.0000000000E-02      1.0000000000E+00       uzf_finf              1.0000000000E+00      0.0000000000E+00      1          
 finf_19                none                   factor                6.2517165000E-01      1.0000000000E-02      1.0000000000E+00       uzf_finf              1.0000000000E+00      0.0000000000E+00      1          
 finf_2                 none                   factor                5.4982379000E-01      1.0000000000E-02      1.0000000000E+00       uzf_finf              1.0000000000E+00      0.0000000000E+00      1          
 finf_20                none                   factor                5.5015107000E-01      1.0000000000E-02      1.0000000000E+00       uzf_finf              1.0000000000E+00      0.0000000000E+00      1          
 finf_21                none                   factor                4.9040438000E-01      1.0000000000E-02      1.0000000000E+00       uzf_finf              1.0000000000E+00      0.0000000000E+00      1          
 finf_22                none                   factor                4.2692661000E-01      1.0000000000E-02      1.0000000000E+00       uzf_finf              1.0000000000E+00      0.0000000000E+00      1          
 finf_3                 none                   factor                9.9144501000E-01      1.0000000000E-02      1.0000000000E+00       uzf_finf              1.0000000000E+00      0.0000000000E+00      1          
 finf_4                 none                   factor                4.9952216000E-01      1.0000000000E-02      1.0000000000E+00       uzf_finf              1.0000000000E+00      0.0000000000E+00      1          
 finf_5                 none                   factor                2.3210531000E-01      1.0000000000E-02      1.0000000000E+00       uzf_finf              1.0000000000E+00      0.0000000000E+00      1          
 finf_6                 none                   factor                4.8870023000E-01      1.0000000000E-02      1.0000000000E+00       uzf_finf              1.0000000000E+00      0.0000000000E+00      1          
 finf_7                 none                   factor                7.3027936000E-01      1.0000000000E-02      1.0000000000E+00       uzf_finf              1.0000000000E+00      0.0000000000E+00      1          
 finf_8                 none                   factor                7.5487946000E-01      1.0000000000E-02      1.0000000000E+00       uzf_finf              1.0000000000E+00      0.0000000000E+00      1          
 finf_9                 none                   factor                6.7135347000E-01      1.0000000000E-02      1.0000000000E+00       uzf_finf              1.0000000000E+00      0.0000000000E+00      1          
 ks_1                   log                    factor                3.8691924000E+01      1.0000000000E-05      5.0000000000E+03       upw_ks                1.0000000000E+00      0.0000000000E+00      1          
 ks_10                  log                    factor                1.7737868000E+00      1.0000000000E-05      5.0000000000E+03       upw_ks                1.0000000000E+00      0.0000000000E+00      1          
 ks_100                 log                    factor                3.2466206000E-04      1.0000000000E-05      5.0000000000E+03       upw_ks                1.0000000000E+00      0.0000000000E+00      1          
 ks_101                 log                    factor                1.1582764000E-04      1.0000000000E-05      5.0000000000E+03       upw_ks                1.0000000000E+00      0.0000000000E+00      1          
 ks_102                 log                    factor                8.7345329000E-05      1.0000000000E-05      5.0000000000E+03       upw_ks                1.0000000000E+00      0.0000000000E+00      1          
 ks_103                 log                    factor                9.7078621000E-05      1.0000000000E-05      5.0000000000E+03       upw_ks                1.0000000000E+00      0.0000000000E+00      1          
 ks_104                 log                    factor                8.8409504000E-05      1.0000000000E-05      5.0000000000E+03       upw_ks                1.0000000000E+00      0.0000000000E+00      1          
 ks_105                 log                    factor                9.5914972000E-05      1.0000000000E-05      5.0000000000E+03       upw_ks                1.0000000000E+00      0.0000000000E+00      1          
 ks_106                 log                    factor                1.0803242000E-04      1.0000000000E-05      5.0000000000E+03       upw_ks                1.0000000000E+00      0.0000000000E+00      1          
 ks_107                 log                    factor                1.7223670000E-04      1.0000000000E-05      5.0000000000E+03       upw_ks                1.0000000000E+00      0.0000000000E+00      1          
 ks_108                 log                    factor                5.9763844000E+00      1.0000000000E-05      5.0000000000E+03       upw_ks                1.0000000000E+00      0.0000000000E+00      1          
 ks_109                 log                    factor                5.2614643000E+00      1.0000000000E-05      5.0000000000E+03       upw_ks                1.0000000000E+00      0.0000000000E+00      1          
 ks_11                  log                    factor                6.6797736000E+00      1.0000000000E-05      5.0000000000E+03       upw_ks                1.0000000000E+00      0.0000000000E+00      1          
 ks_110                 log                    factor                5.9793284000E+00      1.0000000000E-05      5.0000000000E+03       upw_ks                1.0000000000E+00      0.0000000000E+00      1          
 ks_111                 log                    factor                5.5319186000E+00      1.0000000000E-05      5.0000000000E+03       upw_ks                1.0000000000E+00      0.0000000000E+00      1          
 ks_112                 log                    factor                3.7229984000E+00      1.0000000000E-05      5.0000000000E+03       upw_ks                1.0000000000E+00      0.0000000000E+00      1          
 ks_113                 log                    factor                8.2873483000E-01      1.0000000000E-05      5.0000000000E+03       upw_ks                1.0000000000E+00      0.0000000000E+00      1          
 ks_114                 log                    factor                5.0688171000E+00      1.0000000000E-05      5.0000000000E+03       upw_ks                1.0000000000E+00      0.0000000000E+00      1          
 ks_115                 log                    factor                3.6926134000E+00      1.0000000000E-05      5.0000000000E+03       upw_ks                1.0000000000E+00      0.0000000000E+00      1          
 ks_116                 log                    factor                1.8334212000E+00      1.0000000000E-05      5.0000000000E+03       upw_ks                1.0000000000E+00      0.0000000000E+00      1          
 ks_117                 log                    factor                9.1709616000E+00      1.0000000000E-05      5.0000000000E+03       upw_ks                1.0000000000E+00      0.0000000000E+00      1          
 ks_118                 log                    factor                2.0130616000E+00      1.0000000000E-05      5.0000000000E+03       upw_ks                1.0000000000E+00      0.0000000000E+00      1          
 ks_119                 log                    factor                6.3909075000E+00      1.0000000000E-05      5.0000000000E+03       upw_ks                1.0000000000E+00      0.0000000000E+00      1          
 ks_12                  log                    factor                8.5339513000E+00      1.0000000000E-05      5.0000000000E+03       upw_ks                1.0000000000E+00      0.0000000000E+00      1          
 ks_120                 log                    factor                4.9091257000E+00      1.0000000000E-05      5.0000000000E+03       upw_ks                1.0000000000E+00      0.0000000000E+00      1          
 ks_121                 log                    factor                1.6626035000E+00      1.0000000000E-05      5.0000000000E+03       upw_ks                1.0000000000E+00      0.0000000000E+00      1          
 ks_122                 log                    factor                4.5175817000E+01      1.0000000000E-05      5.0000000000E+03       upw_ks                1.0000000000E+00      0.0000000000E+00      1          
 ks_123                 log                    factor                2.6875067000E+01      1.0000000000E-05      5.0000000000E+03       upw_ks                1.0000000000E+00      0.0000000000E+00      1          
 ks_124                 log                    factor                2.1789336000E+00      1.0000000000E-05      5.0000000000E+03       upw_ks                1.0000000000E+00      0.0000000000E+00      1          
 ks_125                 log                    factor                2.0448424000E+01      1.0000000000E-05      5.0000000000E+03       upw_ks                1.0000000000E+00      0.0000000000E+00      1          
 ks_126                 log                    factor                8.2165035000E+00      1.0000000000E-05      5.0000000000E+03       upw_ks                1.0000000000E+00      0.0000000000E+00      1          
 ks_127                 log                    factor                2.0267455000E+00      1.0000000000E-05      5.0000000000E+03       upw_ks                1.0000000000E+00      0.0000000000E+00      1          
 ks_128                 log                    factor                5.3294519000E+00      1.0000000000E-05      5.0000000000E+03       upw_ks                1.0000000000E+00      0.0000000000E+00      1          
 ks_129                 log                    factor                5.9932464000E+00      1.0000000000E-05      5.0000000000E+03       upw_ks                1.0000000000E+00      0.0000000000E+00      1          
 ks_13                  log                    factor                4.2868105000E+00      1.0000000000E-05      5.0000000000E+03       upw_ks                1.0000000000E+00      0.0000000000E+00      1          
 ks_130                 log                    factor                1.6859741000E+00      1.0000000000E-05      5.0000000000E+03       upw_ks                1.0000000000E+00      0.0000000000E+00      1          
 ks_131                 log                    factor                2.0035172000E-04      1.0000000000E-05      5.0000000000E+03       upw_ks                1.0000000000E+00      0.0000000000E+00      1          
 ks_132                 log                    factor                2.0002771000E-04      1.0000000000E-05      5.0000000000E+03       upw_ks                1.0000000000E+00      0.0000000000E+00      1          
 ks_133                 log                    factor                2.0225753000E-04      1.0000000000E-05      5.0000000000E+03       upw_ks                1.0000000000E+00      0.0000000000E+00      1          
 ks_134                 log                    factor                3.0075282000E-02      1.0000000000E-05      5.0000000000E+03       upw_ks                1.0000000000E+00      0.0000000000E+00      1          
 ks_135                 log                    factor                1.7449316000E-04      1.0000000000E-05      5.0000000000E+03       upw_ks                1.0000000000E+00      0.0000000000E+00      1          
 ks_136                 log                    factor                1.9996533000E-04      1.0000000000E-05      5.0000000000E+03       upw_ks                1.0000000000E+00      0.0000000000E+00      1          
 ks_137                 log                    factor                9.0639356000E-03      1.0000000000E-05      5.0000000000E+03       upw_ks                1.0000000000E+00      0.0000000000E+00      1          
 ks_138                 log                    factor                5.9182836000E+00      1.0000000000E-05      5.0000000000E+03       upw_ks                1.0000000000E+00      0.0000000000E+00      1          
 ks_139                 log                    factor                2.0118489000E-04      1.0000000000E-05      5.0000000000E+03       upw_ks                1.0000000000E+00      0.0000000000E+00      1          
 ks_14                  log                    factor                2.2971366000E+00      1.0000000000E-05      5.0000000000E+03       upw_ks                1.0000000000E+00      0.0000000000E+00      1          
 ks_140                 log                    factor                4.5015259000E+00      1.0000000000E-05      5.0000000000E+03       upw_ks                1.0000000000E+00      0.0000000000E+00      1          
 ks_141                 log                    factor                1.9711488000E-04      1.0000000000E-05      5.0000000000E+03       upw_ks                1.0000000000E+00      0.0000000000E+00      1          
 ks_142                 log                    factor                1.9990813000E-04      1.0000000000E-05      5.0000000000E+03       upw_ks                1.0000000000E+00      0.0000000000E+00      1          
 ks_143                 log                    factor                1.9910775000E-03      1.0000000000E-05      5.0000000000E+03       upw_ks                1.0000000000E+00      0.0000000000E+00      1          
 ks_144                 log                    factor                9.7501539000E-01      1.0000000000E-05      5.0000000000E+03       upw_ks                1.0000000000E+00      0.0000000000E+00      1          
 ks_145                 log                    factor                5.8927968000E+00      1.0000000000E-05      5.0000000000E+03       upw_ks                1.0000000000E+00      0.0000000000E+00      1          
 ks_146                 log                    factor                5.9455994000E+00      1.0000000000E-05      5.0000000000E+03       upw_ks                1.0000000000E+00      0.0000000000E+00      1          
 ks_147                 log                    factor                5.9733511000E+00      1.0000000000E-05      5.0000000000E+03       upw_ks                1.0000000000E+00      0.0000000000E+00      1          
 ks_148                 log                    factor                6.0014157000E+00      1.0000000000E-05      5.0000000000E+03       upw_ks                1.0000000000E+00      0.0000000000E+00      1          
 ks_149                 log                    factor                1.9994077000E-04      1.0000000000E-05      5.0000000000E+03       upw_ks                1.0000000000E+00      0.0000000000E+00      1          
 ks_15                  log                    factor                3.9978325000E+00      1.0000000000E-05      5.0000000000E+03       upw_ks                1.0000000000E+00      0.0000000000E+00      1          
 ks_150                 log                    factor                5.9192562000E+00      1.0000000000E-05      5.0000000000E+03       upw_ks                1.0000000000E+00      0.0000000000E+00      1          
 ks_151                 log                    factor                6.0095427000E+00      1.0000000000E-05      5.0000000000E+03       upw_ks                1.0000000000E+00      0.0000000000E+00      1          
 ks_152                 log                    factor                6.0919002000E+00      1.0000000000E-05      5.0000000000E+03       upw_ks                1.0000000000E+00      0.0000000000E+00      1          
 ks_153                 log                    factor                1.6274303000E+01      1.0000000000E-05      5.0000000000E+03       upw_ks                1.0000000000E+00      0.0000000000E+00      1          
 ks_154                 log                    factor                1.0362742000E+00      1.0000000000E-05      5.0000000000E+03       upw_ks                1.0000000000E+00      0.0000000000E+00      1          
 ks_155                 log                    factor                1.9181489000E-04      1.0000000000E-05      5.0000000000E+03       upw_ks                1.0000000000E+00      0.0000000000E+00      1          
 ks_156                 log                    factor                7.8163843000E-02      1.0000000000E-05      5.0000000000E+03       upw_ks                1.0000000000E+00      0.0000000000E+00      1          
 ks_157                 log                    factor                6.4395743000E-01      1.0000000000E-05      5.0000000000E+03       upw_ks                1.0000000000E+00      0.0000000000E+00      1          
 ks_158                 log                    factor                4.0053704000E-01      1.0000000000E-05      5.0000000000E+03       upw_ks                1.0000000000E+00      0.0000000000E+00      1          
 ks_159                 log                    factor                5.7179282000E-02      1.0000000000E-05      5.0000000000E+03       upw_ks                1.0000000000E+00      0.0000000000E+00      1          
 ks_16                  log                    factor                2.1031902000E+00      1.0000000000E-05      5.0000000000E+03       upw_ks                1.0000000000E+00      0.0000000000E+00      1          
 ks_160                 log                    factor                9.8221015000E-02      1.0000000000E-05      5.0000000000E+03       upw_ks                1.0000000000E+00      0.0000000000E+00      1          
 ks_161                 log                    factor                2.2064788000E+01      1.0000000000E-05      5.0000000000E+03       upw_ks                1.0000000000E+00      0.0000000000E+00      1          
 ks_162                 log                    factor                2.5187533000E-01      1.0000000000E-05      5.0000000000E+03       upw_ks                1.0000000000E+00      0.0000000000E+00      1          
 ks_163                 log                    factor                6.8847772000E-02      1.0000000000E-05      5.0000000000E+03       upw_ks                1.0000000000E+00      0.0000000000E+00      1          
 ks_164                 log                    factor                5.2300056000E-02      1.0000000000E-05      5.0000000000E+03       upw_ks                1.0000000000E+00      0.0000000000E+00      1          
 ks_165                 log                    factor                7.2109988000E+00      1.0000000000E-05      5.0000000000E+03       upw_ks                1.0000000000E+00      0.0000000000E+00      1          
 ks_166                 log                    factor                1.5346384000E-02      1.0000000000E-05      5.0000000000E+03       upw_ks                1.0000000000E+00      0.0000000000E+00      1          
 ks_167                 log                    factor                5.1631979000E-02      1.0000000000E-05      5.0000000000E+03       upw_ks                1.0000000000E+00      0.0000000000E+00      1          
 ks_168                 log                    factor                6.1524317000E-01      1.0000000000E-05      5.0000000000E+03       upw_ks                1.0000000000E+00      0.0000000000E+00      1          
 ks_169                 log                    factor                1.7076315000E-04      1.0000000000E-05      5.0000000000E+03       upw_ks                1.0000000000E+00      0.0000000000E+00      1          
 ks_17                  log                    factor                6.1410199000E+00      1.0000000000E-05      5.0000000000E+03       upw_ks                1.0000000000E+00      0.0000000000E+00      1          
 ks_170                 log                    factor                2.0039184000E-03      1.0000000000E-05      5.0000000000E+03       upw_ks                1.0000000000E+00      0.0000000000E+00      1          
 ks_171                 log                    factor                1.0257547000E+00      1.0000000000E-05      5.0000000000E+03       upw_ks                1.0000000000E+00      0.0000000000E+00      1          
 ks_172                 log                    factor                1.9054765000E-02      1.0000000000E-05      5.0000000000E+03       upw_ks                1.0000000000E+00      0.0000000000E+00      1          
 ks_173                 log                    factor                1.9429929000E-02      1.0000000000E-05      5.0000000000E+03       upw_ks                1.0000000000E+00      0.0000000000E+00      1          
 ks_174                 log                    factor                6.0107110000E+00      1.0000000000E-05      5.0000000000E+03       upw_ks                1.0000000000E+00      0.0000000000E+00      1          
 ks_175                 log                    factor                1.2517600000E-01      1.0000000000E-05      5.0000000000E+03       upw_ks                1.0000000000E+00      0.0000000000E+00      1          
 ks_176                 log                    factor                4.4487344000E-03      1.0000000000E-05      5.0000000000E+03       upw_ks                1.0000000000E+00      0.0000000000E+00      1          
 ks_177                 log                    factor                9.6503155000E-01      1.0000000000E-05      5.0000000000E+03       upw_ks                1.0000000000E+00      0.0000000000E+00      1          
 ks_178                 log                    factor                2.0014082000E-04      1.0000000000E-05      5.0000000000E+03       upw_ks                1.0000000000E+00      0.0000000000E+00      1          
 ks_179                 log                    factor                2.7887948000E+00      1.0000000000E-05      5.0000000000E+03       upw_ks                1.0000000000E+00      0.0000000000E+00      1          
 ks_18                  log                    factor                5.9844212000E+00      1.0000000000E-05      5.0000000000E+03       upw_ks                1.0000000000E+00      0.0000000000E+00      1          
 ks_180                 log                    factor                2.3096093000E-04      1.0000000000E-05      5.0000000000E+03       upw_ks                1.0000000000E+00      0.0000000000E+00      1          
 ks_181                 log                    factor                4.2575783000E-01      1.0000000000E-05      5.0000000000E+03       upw_ks                1.0000000000E+00      0.0000000000E+00      1          
 ks_182                 log                    factor                5.9766102000E+00      1.0000000000E-05      5.0000000000E+03       upw_ks                1.0000000000E+00      0.0000000000E+00      1          
 ks_183                 log                    factor                1.0000120000E+00      1.0000000000E-05      5.0000000000E+03       upw_ks                1.0000000000E+00      0.0000000000E+00      1          
 ks_184                 log                    factor                1.0041244000E-04      1.0000000000E-05      5.0000000000E+03       upw_ks                1.0000000000E+00      0.0000000000E+00      1          
 ks_185                 log                    factor                9.9854156000E-05      1.0000000000E-05      5.0000000000E+03       upw_ks                1.0000000000E+00      0.0000000000E+00      1          
 ks_186                 log                    factor                9.7460299000E-05      1.0000000000E-05      5.0000000000E+03       upw_ks                1.0000000000E+00      0.0000000000E+00      1          
 ks_187                 log                    factor                1.0757531000E-04      1.0000000000E-05      5.0000000000E+03       upw_ks                1.0000000000E+00      0.0000000000E+00      1          
 ks_188                 log                    factor                1.0012557000E-04      1.0000000000E-05      5.0000000000E+03       upw_ks                1.0000000000E+00      0.0000000000E+00      1          
 ks_189                 log                    factor                9.9946964000E-05      1.0000000000E-05      5.0000000000E+03       upw_ks                1.0000000000E+00      0.0000000000E+00      1          
 ks_19                  log                    factor                4.6774557000E+00      1.0000000000E-05      5.0000000000E+03       upw_ks                1.0000000000E+00      0.0000000000E+00      1          
 ks_190                 log                    factor                1.1780725000E-05      1.0000000000E-05      5.0000000000E+03       upw_ks                1.0000000000E+00      0.0000000000E+00      1          
 ks_191                 log                    factor                1.0001309000E-04      1.0000000000E-05      5.0000000000E+03       upw_ks                1.0000000000E+00      0.0000000000E+00      1          
 ks_192                 log                    factor                1.2642860000E-04      1.0000000000E-05      5.0000000000E+03       upw_ks                1.0000000000E+00      0.0000000000E+00      1          
 ks_193                 log                    factor                1.0622311000E-05      1.0000000000E-05      5.0000000000E+03       upw_ks                1.0000000000E+00      0.0000000000E+00      1          