# NWT package for  MODFLOW-NWT, generated by Flopy.
 5.000e-02 2.000e+02      40 1.000e-08         2         1         1 SPECIFIED      0.85     1e-05         0       0.1         1        30      1.2       0.6
         2         0         7         7         0         0         1     5.0e-3   1.0e-3       20
