# OC package for MODFLOW-NWT
HEAD PRINT FORMAT       0
HEAD SAVE UNIT         51
DRAWDOWN PRINT FORMAT   0
COMPACT BUDGET AUX
period 1 step 31
  print budget
  save budget
  save head
period 2 step 28
  print budget
  save budget
  save head
period 3 step 31
  print budget
  save budget
  save head
period 4 step 30
  print budget
  save budget
  save head
period 5 step 31
  print budget
  save budget
  save head
period 6 step 30
  print budget
  save budget
  save head
period 7 step 31
  print budget
  save budget
  save head
period 8 step 31
  print budget
  save budget
  save head
period 9 step 30
  print budget
  save budget
  save head
period 10 step 31
  print budget
  save budget
  save head
period 11 step 30
  print budget
  save budget
  save head
period 12 step 31
  print budget
  save budget
  save head
period 13 step 31
  print budget
  save budget
  save head
period 14 step 28
  print budget
  save budget
  save head
period 15 step 31
  print budget
  save budget
  save head
period 16 step 30
  print budget
  save budget
  save head
period 17 step 31
  print budget
  save budget
  save head
period 18 step 30
  print budget
  save budget
  save head
period 19 step 31
  print budget
  save budget
  save head
period 20 step 31
  print budget
  save budget
  save head
period 21 step 30
  print budget
  save budget
  save head
period 22 step 31
  print budget
  save budget
  save head
period 23 step 30
  print budget
  save budget
  save head
period 24 step 31
  print budget
  save budget
  save head
period 25 step 31
  print budget
  save budget
  save head
period 26 step 29
  print budget
  save budget
  save head
period 27 step 31
  print budget
  save budget
  save head
period 28 step 30
  print budget
  save budget
  save head
period 29 step 31
  print budget
  save budget
  save head
period 30 step 30
  print budget
  save budget
  save head
period 31 step 31
  print budget
  save budget
  save head
period 32 step 31
  print budget
  save budget
  save head
period 33 step 30
  print budget
  save budget
  save head
period 34 step 31
  print budget
  save budget
  save head
period 35 step 30
  print budget
  save budget
  save head
period 36 step 31
  print budget
  save budget
  save head
period 37 step 31
  print budget
  save budget
  save head
period 38 step 28
  print budget
  save budget
  save head
period 39 step 31
  print budget
  save budget
  save head
period 40 step 30
  print budget
  save budget
  save head
period 41 step 31
  print budget
  save budget
  save head
period 42 step 30
  print budget
  save budget
  save head
period 43 step 31
  print budget
  save budget
  save head
period 44 step 31
  print budget
  save budget
  save head
period 45 step 30
  print budget
  save budget
  save head
period 46 step 31
  print budget
  save budget
  save head
period 47 step 30
  print budget
  save budget
  save head
period 48 step 31
  print budget
  save budget
  save head
period 49 step 31
  print budget
  save budget
  save head
period 50 step 28
  print budget
  save budget
  save head
period 51 step 31
  print budget
  save budget
  save head
period 52 step 30
  print budget
  save budget
  save head
period 53 step 31
  print budget
  save budget
  save head
period 54 step 30
  print budget
  save budget
  save head
period 55 step 31
  print budget
  save budget
  save head
period 56 step 31
  print budget
  save budget
  save head
period 57 step 30
  print budget
  save budget
  save head
period 58 step 31
  print budget
  save budget
  save head
period 59 step 30
  print budget
  save budget
  save head
period 60 step 31
  print budget
  save budget
  save head
period 61 step 31
  print budget
  save budget
  save head
period 62 step 28
  print budget
  save budget
  save head
period 63 step 31
  print budget
  save budget
  save head
period 64 step 30
  print budget
  save budget
  save head
period 65 step 31
  print budget
  save budget
  save head
period 66 step 30
  print budget
  save budget
  save head
period 67 step 31
  print budget
  save budget
  save head
period 68 step 31
  print budget
  save budget
  save head
period 69 step 30
  print budget
  save budget
  save head
period 70 step 31
  print budget
  save budget
  save head
period 71 step 30
  print budget
  save budget
  save head
period 72 step 31
  print budget
  save budget
  save head
period 73 step 31
  print budget
  save budget
  save head
period 74 step 29
  print budget
  save budget
  save head
period 75 step 31
  print budget
  save budget
  save head
period 76 step 30
  print budget
  save budget
  save head
period 77 step 31
  print budget
  save budget
  save head
period 78 step 30
  print budget
  save budget
  save head
period 79 step 31
  print budget
  save budget
  save head
period 80 step 31
  print budget
  save budget
  save head
period 81 step 30
  print budget
  save budget
  save head
period 82 step 31
  print budget
  save budget
  save head
period 83 step 30
  print budget
  save budget
  save head
period 84 step 31
  print budget
  save budget
  save head
period 85 step 31
  print budget
  save budget
  save head
period 86 step 28
  print budget
  save budget
  save head
period 87 step 31
  print budget
  save budget
  save head
period 88 step 30
  print budget
  save budget
  save head
period 89 step 31
  print budget
  save budget
  save head
period 90 step 30
  print budget
  save budget
  save head
period 91 step 31
  print budget
  save budget
  save head
period 92 step 31
  print budget
  save budget
  save head
period 93 step 30
  print budget
  save budget
  save head
period 94 step 31
  print budget
  save budget
  save head
period 95 step 30
  print budget
  save budget
  save head
period 96 step 31
  print budget
  save budget
  save head
period 97 step 31
  print budget
  save budget
  save head
period 98 step 28
  print budget
  save budget
  save head
period 99 step 31
  print budget
  save budget
  save head
period 100 step 30
  print budget
  save budget
  save head
period 101 step 31
  print budget
  save budget
  save head
period 102 step 30
  print budget
  save budget
  save head
period 103 step 31
  print budget
  save budget
  save head
period 104 step 31
  print budget
  save budget
  save head
period 105 step 30
  print budget
  save budget
  save head
period 106 step 31
  print budget
  save budget
  save head
period 107 step 30
  print budget
  save budget
  save head
period 108 step 31
  print budget
  save budget
  save head
period 109 step 31
  print budget
  save budget
  save head
period 110 step 28
  print budget
  save budget
  save head
period 111 step 31
  print budget
  save budget
  save head
period 112 step 30
  print budget
  save budget
  save head
period 113 step 31
  print budget
  save budget
  save head
period 114 step 30
  print budget
  save budget
  save head
period 115 step 31
  print budget
  save budget
  save head
period 116 step 31
  print budget
  save budget
  save head
period 117 step 30
  print budget
  save budget
  save head
period 118 step 31
  print budget
  save budget
  save head
period 119 step 30
  print budget
  save budget
  save head
period 120 step 31
  print budget
  save budget
  save head
period 121 step 31
  print budget
  save budget
  save head
period 122 step 29
  print budget
  save budget
  save head
period 123 step 31
  print budget
  save budget
  save head
period 124 step 30
  print budget
  save budget
  save head
period 125 step 31
  print budget
  save budget
  save head
period 126 step 30
  print budget
  save budget
  save head
period 127 step 31
  print budget
  save budget
  save head
period 128 step 31
  print budget
  save budget
  save head
period 129 step 30
  print budget
  save budget
  save head
period 130 step 31
  print budget
  save budget
  save head
period 131 step 30
  print budget
  save budget
  save head
period 132 step 31
  print budget
  save budget
  save head
period 133 step 31
  print budget
  save budget
  save head
period 134 step 28
  print budget
  save budget
  save head
period 135 step 31
  print budget
  save budget
  save head
period 136 step 30
  print budget
  save budget
  save head
period 137 step 31
  print budget
  save budget
  save head
period 138 step 30
  print budget
  save budget
  save head
period 139 step 31
  print budget
  save budget
  save head
period 140 step 31
  print budget
  save budget
  save head
period 141 step 30
  print budget
  save budget
  save head
period 142 step 31
  print budget
  save budget
  save head
period 143 step 30
  print budget
  save budget
  save head
period 144 step 31
  print budget
  save budget
  save head
period 145 step 31
  print budget
  save budget
  save head
period 146 step 28
  print budget
  save budget
  save head
period 147 step 31
  print budget
  save budget
  save head
period 148 step 30
  print budget
  save budget
  save head
period 149 step 31
  print budget
  save budget
  save head
period 150 step 30
  print budget
  save budget
  save head
period 151 step 31
  print budget
  save budget
  save head
period 152 step 31
  print budget
  save budget
  save head
period 153 step 30
  print budget
  save budget
  save head
period 154 step 31
  print budget
  save budget
  save head
period 155 step 30
  print budget
  save budget
  save head
period 156 step 31
  print budget
  save budget
  save head
period 157 step 31
  print budget
  save budget
  save head
period 158 step 28
  print budget
  save budget
  save head
period 159 step 31
  print budget
  save budget
  save head
period 160 step 30
  print budget
  save budget
  save head
period 161 step 31
  print budget
  save budget
  save head
period 162 step 30
  print budget
  save budget
  save head
period 163 step 31
  print budget
  save budget
  save head
period 164 step 31
  print budget
  save budget
  save head
period 165 step 30
  print budget
  save budget
  save head
period 166 step 31
  print budget
  save budget
  save head
period 167 step 30
  print budget
  save budget
  save head
period 168 step 31
  print budget
  save budget
  save head
period 169 step 31
  print budget
  save budget
  save head
period 170 step 29
  print budget
  save budget
  save head
period 171 step 31
  print budget
  save budget
  save head
period 172 step 30
  print budget
  save budget
  save head
period 173 step 31
  print budget
  save budget
  save head
period 174 step 30
  print budget
  save budget
  save head
period 175 step 31
  print budget
  save budget
  save head
period 176 step 31
  print budget
  save budget
  save head
period 177 step 30
  print budget
  save budget
  save head
period 178 step 31
  print budget
  save budget
  save head
period 179 step 30
  print budget
  save budget
  save head
period 180 step 31
  print budget
  save budget
  save head
period 181 step 31
  print budget
  save budget
  save head
period 182 step 28
  print budget
  save budget
  save head
period 183 step 31
  print budget
  save budget
  save head
period 184 step 30
  print budget
  save budget
  save head
period 185 step 31
  print budget
  save budget
  save head
period 186 step 30
  print budget
  save budget
  save head
period 187 step 31
  print budget
  save budget
  save head
period 188 step 31
  print budget
  save budget
  save head
period 189 step 30
  print budget
  save budget
  save head
period 190 step 31
  print budget
  save budget
  save head
period 191 step 30
  print budget
  save budget
  save head
period 192 step 31
  print budget
  save budget
  save head
period 193 step 31
  print budget
  save budget
  save head
period 194 step 28
  print budget
  save budget
  save head
period 195 step 31
  print budget
  save budget
  save head
period 196 step 30
  print budget
  save budget
  save head
period 197 step 31
  print budget
  save budget
  save head
period 198 step 30
  print budget
  save budget
  save head
period 199 step 31
  print budget
  save budget
  save head
period 200 step 31
  print budget
  save budget
  save head
period 201 step 30
  print budget
  save budget
  save head
period 202 step 31
  print budget
  save budget
  save head
period 203 step 30
  print budget
  save budget
  save head
period 204 step 31
  print budget
  save budget
  save head
period 205 step 31
  print budget
  save budget
  save head
period 206 step 28
  print budget
  save budget
  save head
period 207 step 31
  print budget
  save budget
  save head
period 208 step 30
  print budget
  save budget
  save head
period 209 step 31
  print budget
  save budget
  save head
period 210 step 30
  print budget
  save budget
  save head
period 211 step 31
  print budget
  save budget
  save head
period 212 step 31
  print budget
  save budget
  save head
period 213 step 30
  print budget
  save budget
  save head
period 214 step 31
  print budget
  save budget
  save head
period 215 step 30
  print budget
  save budget
  save head
period 216 step 31
  print budget
  save budget
  save head
period 217 step 31
  print budget
  save budget
  save head
period 218 step 29
  print budget
  save budget
  save head
period 219 step 31
  print budget
  save budget
  save head
period 220 step 30
  print budget
  save budget
  save head
period 221 step 31
  print budget
  save budget
  save head
period 222 step 30
  print budget
  save budget
  save head
period 223 step 31
  print budget
  save budget
  save head
period 224 step 31
  print budget
  save budget
  save head
period 225 step 30
  print budget
  save budget
  save head
period 226 step 31
  print budget
  save budget
  save head
period 227 step 30
  print budget
  save budget
  save head
period 228 step 31
  print budget
  save budget
  save head
period 229 step 31
  print budget
  save budget
  save head
period 230 step 28
  print budget
  save budget
  save head
period 231 step 31
  print budget
  save budget
  save head
period 232 step 30
  print budget
  save budget
  save head
period 233 step 31
  print budget
  save budget
  save head
period 234 step 30
  print budget
  save budget
  save head
period 235 step 31
  print budget
  save budget
  save head
period 236 step 31
  print budget
  save budget
  save head
period 237 step 30
  print budget
  save budget
  save head
period 238 step 31
  print budget
  save budget
  save head
period 239 step 30
  print budget
  save budget
  save head
period 240 step 31
  print budget
  save budget
  save head
period 241 step 31
  print budget
  save budget
  save head
period 242 step 28
  print budget
  save budget
  save head
period 243 step 31
  print budget
  save budget
  save head
period 244 step 30
  print budget
  save budget
  save head
period 245 step 31
  print budget
  save budget
  save head
period 246 step 30
  print budget
  save budget
  save head
period 247 step 31
  print budget
  save budget
  save head
period 248 step 31
  print budget
  save budget
  save head
period 249 step 30
  print budget
  save budget
  save head
period 250 step 31
  print budget
  save budget
  save head
period 251 step 30
  print budget
  save budget
  save head
period 252 step 31
  print budget
  save budget
  save head
period 253 step 31
  print budget
  save budget
  save head
period 254 step 28
  print budget
  save budget
  save head
period 255 step 31
  print budget
  save budget
  save head
period 256 step 30
  print budget
  save budget
  save head
period 257 step 31
  print budget
  save budget
  save head
period 258 step 30
  print budget
  save budget
  save head
period 259 step 31
  print budget
  save budget
  save head
period 260 step 31
  print budget
  save budget
  save head
period 261 step 30
  print budget
  save budget
  save head
period 262 step 31
  print budget
  save budget
  save head
period 263 step 30
  print budget
  save budget
  save head
period 264 step 31
  print budget
  save budget
  save head
period 265 step 31
  print budget
  save budget
  save head
period 266 step 29
  print budget
  save budget
  save head
period 267 step 31
  print budget
  save budget
  save head
period 268 step 30
  print budget
  save budget
  save head
period 269 step 31
  print budget
  save budget
  save head
period 270 step 30
  print budget
  save budget
  save head
period 271 step 31
  print budget
  save budget
  save head
period 272 step 31
  print budget
  save budget
  save head
period 273 step 30
  print budget
  save budget
  save head
period 274 step 31
  print budget
  save budget
  save head
period 275 step 30
  print budget
  save budget
  save head
period 276 step 31
  print budget
  save budget
  save head
period 277 step 31
  print budget
  save budget
  save head
period 278 step 28
  print budget
  save budget
  save head
period 279 step 31
  print budget
  save budget
  save head
period 280 step 30
  print budget
  save budget
  save head
period 281 step 31
  print budget
  save budget
  save head
period 282 step 30
  print budget
  save budget
  save head
period 283 step 31
  print budget
  save budget
  save head
period 284 step 31
  print budget
  save budget
  save head
period 285 step 30
  print budget
  save budget
  save head
period 286 step 31
  print budget
  save budget
  save head
period 287 step 30
  print budget
  save budget
  save head
period 288 step 31
  print budget
  save budget
  save head
period 289 step 31
  print budget
  save budget
  save head
period 290 step 28
  print budget
  save budget
  save head
period 291 step 31
  print budget
  save budget
  save head
period 292 step 30
  print budget
  save budget
  save head
period 293 step 31
  print budget
  save budget
  save head
period 294 step 30
  print budget
  save budget
  save head
period 295 step 31
  print budget
  save budget
  save head
period 296 step 31
  print budget
  save budget
  save head
period 297 step 30
  print budget
  save budget
  save head
period 298 step 31
  print budget
  save budget
  save head
period 299 step 30
  print budget
  save budget
  save head
period 300 step 31
  print budget
  save budget
  save head
period 301 step 31
  print budget
  save budget
  save head
period 302 step 28
  print budget
  save budget
  save head
period 303 step 31
  print budget
  save budget
  save head
period 304 step 30
  print budget
  save budget
  save head
period 305 step 31
  print budget
  save budget
  save head
period 306 step 30
  print budget
  save budget
  save head
period 307 step 31
  print budget
  save budget
  save head
period 308 step 31
  print budget
  save budget
  save head
period 309 step 30
  print budget
  save budget
  save head
period 310 step 31
  print budget
  save budget
  save head
period 311 step 30
  print budget
  save budget
  save head
period 312 step 31
  print budget
  save budget
  save head
period 313 step 31
  print budget
  save budget
  save head
period 314 step 29
  print budget
  save budget
  save head
period 315 step 31
  print budget
  save budget
  save head
period 316 step 30
  print budget
  save budget
  save head
period 317 step 31
  print budget
  save budget
  save head
period 318 step 30
  print budget
  save budget
  save head
period 319 step 31
  print budget
  save budget
  save head
period 320 step 31
  print budget
  save budget
  save head
period 321 step 30
  print budget
  save budget
  save head
period 322 step 31
  print budget
  save budget
  save head
period 323 step 30
  print budget
  save budget
  save head
period 324 step 31
  print budget
  save budget
  save head
period 325 step 31
  print budget
  save budget
  save head
period 326 step 28
  print budget
  save budget
  save head
period 327 step 31
  print budget
  save budget
  save head
period 328 step 30
  print budget
  save budget
  save head
period 329 step 31
  print budget
  save budget
  save head
period 330 step 30
  print budget
  save budget
  save head
period 331 step 31
  print budget
  save budget
  save head
period 332 step 31
  print budget
  save budget
  save head
period 333 step 30
  print budget
  save budget
  save head
period 334 step 31
  print budget
  save budget
  save head
period 335 step 30
  print budget
  save budget
  save head
period 336 step 31
  print budget
  save budget
  save head
period 337 step 31
  print budget
  save budget
  save head
period 338 step 28
  print budget
  save budget
  save head
period 339 step 31
  print budget
  save budget
  save head
period 340 step 30
  print budget
  save budget
  save head
period 341 step 31
  print budget
  save budget
  save head
period 342 step 30
  print budget
  save budget
  save head
period 343 step 31
  print budget
  save budget
  save head
period 344 step 31
  print budget
  save budget
  save head
period 345 step 30
  print budget
  save budget
  save head
period 346 step 31
  print budget
  save budget
  save head
period 347 step 30
  print budget
  save budget
  save head
period 348 step 31
  print budget
  save budget
  save head
period 349 step 31
  print budget
  save budget
  save head
period 350 step 28
  print budget
  save budget
  save head
period 351 step 31
  print budget
  save budget
  save head
period 352 step 30
  print budget
  save budget
  save head
period 353 step 31
  print budget
  save budget
  save head
period 354 step 30
  print budget
  save budget
  save head
period 355 step 31
  print budget
  save budget
  save head
period 356 step 31
  print budget
  save budget
  save head
period 357 step 30
  print budget
  save budget
  save head
period 358 step 31
  print budget
  save budget
  save head
period 359 step 30
  print budget
  save budget
  save head
period 360 step 31
  print budget
  save budget
  save head
period 361 step 31
  print budget
  save budget
  save head
period 362 step 29
  print budget
  save budget
  save head
period 363 step 31
  print budget
  save budget
  save head
period 364 step 30
  print budget
  save budget
  save head
period 365 step 31
  print budget
  save budget
  save head
period 366 step 30
  print budget
  save budget
  save head
period 367 step 31
  print budget
  save budget
  save head
period 368 step 31
  print budget
  save budget
  save head
period 369 step 30
  print budget
  save budget
  save head
period 370 step 31
  print budget
  save budget
  save head
period 371 step 30
  print budget
  save budget
  save head
period 372 step 31
  print budget
  save budget
  save head
period 373 step 31
  print budget
  save budget
  save head
period 374 step 28
  print budget
  save budget
  save head
period 375 step 31
  print budget
  save budget
  save head
period 376 step 30
  print budget
  save budget
  save head
period 377 step 31
  print budget
  save budget
  save head
period 378 step 30
  print budget
  save budget
  save head
period 379 step 31
  print budget
  save budget
  save head
period 380 step 31
  print budget
  save budget
  save head
period 381 step 30
  print budget
  save budget
  save head
period 382 step 31
  print budget
  save budget
  save head
period 383 step 30
  print budget
  save budget
  save head
period 384 step 31
  print budget
  save budget
  save head
period 385 step 31
  print budget
  save budget
  save head
period 386 step 28
  print budget
  save budget
  save head
period 387 step 31
  print budget
  save budget
  save head
period 388 step 30
  print budget
  save budget
  save head
period 389 step 31
  print budget
  save budget
  save head
period 390 step 30
  print budget
  save budget
  save head
period 391 step 31
  print budget
  save budget
  save head
period 392 step 31
  print budget
  save budget
  save head
period 393 step 30
  print budget
  save budget
  save head
period 394 step 31
  print budget
  save budget
  save head
period 395 step 30
  print budget
  save budget
  save head
period 396 step 31
  print budget
  save budget
  save head
period 397 step 31
  print budget
  save budget
  save head
period 398 step 28
  print budget
  save budget
  save head
period 399 step 31
  print budget
  save budget
  save head
period 400 step 30
  print budget
  save budget
  save head
period 401 step 31
  print budget
  save budget
  save head
period 402 step 30
  print budget
  save budget
  save head
period 403 step 31
  print budget
  save budget
  save head
period 404 step 31
  print budget
  save budget
  save head
period 405 step 30
  print budget
  save budget
  save head
period 406 step 31
  print budget
  save budget
  save head
period 407 step 30
  print budget
  save budget
  save head
period 408 step 31
  print budget
  save budget
  save head
period 409 step 31
  print budget
  save budget
  save head
period 410 step 29
  print budget
  save budget
  save head
period 411 step 31
  print budget
  save budget
  save head
period 412 step 30
  print budget
  save budget
  save head
period 413 step 31
  print budget
  save budget
  save head
period 414 step 30
  print budget
  save budget
  save head
period 415 step 31
  print budget
  save budget
  save head
period 416 step 31
  print budget
  save budget
  save head
period 417 step 30
  print budget
  save budget
  save head
period 418 step 31
  print budget
  save budget
  save head
period 419 step 30
  print budget
  save budget
  save head
period 420 step 31
  print budget
  save budget
  save head
period 421 step 31
  print budget
  save budget
  save head
period 422 step 28
  print budget
  save budget
  save head
period 423 step 31
  print budget
  save budget
  save head
period 424 step 30
  print budget
  save budget
  save head
period 425 step 31
  print budget
  save budget
  save head
period 426 step 30
  print budget
  save budget
  save head
period 427 step 31
  print budget
  save budget
  save head
period 428 step 31
  print budget
  save budget
  save head
period 429 step 30
  print budget
  save budget
  save head
period 430 step 31
  print budget
  save budget
  save head
period 431 step 30
  print budget
  save budget
  save head
period 432 step 31
  print budget
  save budget
  save head
period 433 step 31
  print budget
  save budget
  save head
period 434 step 28
  print budget
  save budget
  save head
period 435 step 31
  print budget
  save budget
  save head
period 436 step 30
  print budget
  save budget
  save head
period 437 step 31
  print budget
  save budget
  save head
period 438 step 30
  print budget
  save budget
  save head
period 439 step 31
  print budget
  save budget
  save head
period 440 step 31
  print budget
  save budget
  save head
period 441 step 30
  print budget
  save budget
  save head
period 442 step 31
  print budget
  save budget
  save head
period 443 step 30
  print budget
  save budget
  save head
period 444 step 31
  print budget
  save budget
  save head
period 445 step 31
  print budget
  save budget
  save head
period 446 step 28
  print budget
  save budget
  save head
period 447 step 31
  print budget
  save budget
  save head
period 448 step 30
  print budget
  save budget
  save head
period 449 step 31
  print budget
  save budget
  save head
period 450 step 30
  print budget
  save budget
  save head
period 451 step 31
  print budget
  save budget
  save head
period 452 step 31
  print budget
  save budget
  save head
period 453 step 30
  print budget
  save budget
  save head
period 454 step 31
  print budget
  save budget
  save head
period 455 step 30
  print budget
  save budget
  save head
period 456 step 31
  print budget
  save budget
  save head
period 457 step 31
  print budget
  save budget
  save head
period 458 step 29
  print budget
  save budget
  save head
period 459 step 31
  print budget
  save budget
  save head
period 460 step 30
  print budget
  save budget
  save head
period 461 step 31
  print budget
  save budget
  save head
period 462 step 30
  print budget
  save budget
  save head
period 463 step 31
  print budget
  save budget
  save head
period 464 step 31
  print budget
  save budget
  save head
period 465 step 30
  print budget
  save budget
  save head
period 466 step 31
  print budget
  save budget
  save head
period 467 step 30
  print budget
  save budget
  save head
period 468 step 31
  print budget
  save budget
  save head
period 469 step 31
  print budget
  save budget
  save head
period 470 step 28
  print budget
  save budget
  save head
period 471 step 31
  print budget
  save budget
  save head
period 472 step 30
  print budget
  save budget
  save head
period 473 step 31
  print budget
  save budget
  save head
period 474 step 30
  print budget
  save budget
  save head
period 475 step 31
  print budget
  save budget
  save head
period 476 step 31
  print budget
  save budget
  save head
period 477 step 30
  print budget
  save budget
  save head
period 478 step 31
  print budget
  save budget
  save head
period 479 step 30
  print budget
  save budget
  save head
period 480 step 31
  print budget
  save budget
  save head
period 481 step 31
  print budget
  save budget
  save head
period 482 step 28
  print budget
  save budget
  save head
period 483 step 31
  print budget
  save budget
  save head
period 484 step 30
  print budget
  save budget
  save head
period 485 step 31
  print budget
  save budget
  save head
period 486 step 30
  print budget
  save budget
  save head
period 487 step 31
  print budget
  save budget
  save head
period 488 step 31
  print budget
  save budget
  save head
period 489 step 30
  print budget
  save budget
  save head
period 490 step 31
  print budget
  save budget
  save head
period 491 step 30
  print budget
  save budget
  save head
period 492 step 31
  print budget
  save budget
  save head
period 493 step 31
  print budget
  save budget
  save head
period 494 step 28
  print budget
  save budget
  save head
period 495 step 31
  print budget
  save budget
  save head
period 496 step 30
  print budget
  save budget
  save head
period 497 step 31
  print budget
  save budget
  save head
period 498 step 30
  print budget
  save budget
  save head
period 499 step 31
  print budget
  save budget
  save head
period 500 step 31
  print budget