pcf
* control data
             restart          estimation
       409       212         9         0         4         0
         1         1              single               point         1         0         0          noobsreref
   2.000000E+01  -3.000000E+00   3.000000E-01   1.000000E-02        -7       999          lamforgive        noderforgive
   1.000000E+01   1.000000E+01   1.000000E-03         0         0
   1.000000E-01         1   1.100000E+00               noaui          nosenreuse        noboundscale
        30   1.000000E-02         3         3   1.000000E-02         3   0.000000E+00         1  -1.000000E+00
         0         0         0         0             jcosave          verboserec          jcosaveitn          reisaveitn          parsaveitn        noparsaverun
* singular value decomposition
         1
  10000000    1.000000E-06
1
* parameter groups
 upw_ks                  relative              2.0000000000E-02       0.0  always_3              2.0000000000E+00       parabolic             1.0000000000E-05      5.0000000000E-01       smaller              
 uzf_surfk               relative              2.0000000000E-02       0.0  always_3              2.0000000000E+00       parabolic             1.0000000000E-05      5.0000000000E-01       smaller              
 uzf_vks                 relative              2.0000000000E-02       0.0  always_3              2.0000000000E+00       parabolic             1.0000000000E-05      5.0000000000E-01       smaller              
 sfr_ks                  relative              2.0000000000E-02       0.0  always_3              2.0000000000E+00       parabolic             1.0000000000E-05      5.0000000000E-01       smaller              
 uzf_finf                relative              2.0000000000E-02       0.0  always_3              2.0000000000E+00       parabolic             1.0000000000E-05      5.0000000000E-01       smaller              
 upw_vka                 relative              2.0000000000E-02       0.0  always_3              2.0000000000E+00       parabolic             1.0000000000E-05      5.0000000000E-01       smaller              
 lak_cd                  relative              2.0000000000E-02       0.0  always_3              2.0000000000E+00       parabolic             1.0000000000E-05      5.0000000000E-01       smaller              
 sfr_spil                relative              2.0000000000E-02       0.0  always_3              2.0000000000E+00       parabolic             1.0000000000E-05      5.0000000000E-01       smaller              
 uzf_pet                 relative              2.0000000000E-02       0.0  always_3              2.0000000000E+00       parabolic             1.0000000000E-05      5.0000000000E-01       smaller              
* parameter data
 lak_cond_1             fixed                  factor                1.0000000000E+00      1.1000000000E-10      1.1000000000E+10       lak_cd                1.0000000000E+00      0.0000000000E+00      1          
 lak_cond_2             fixed                  factor                1.0000000000E+00      1.1000000000E-10      1.1000000000E+10       lak_cd                1.0000000000E+00      0.0000000000E+00      1          
 sfr_k_1                log                    factor                5.0000000000E+00      1.0000000000E-05      5.0000000000E+02       sfr_ks                1.0000000000E+00      0.0000000000E+00      1          
 sfr_k_2                log                    factor                5.0000000000E+00      1.0000000000E-05      5.0000000000E+02       sfr_ks                1.0000000000E+00      0.0000000000E+00      1          
 sfr_k_3                log                    factor                5.0000000000E+00      1.0000000000E-05      5.0000000000E+02       sfr_ks                1.0000000000E+00      0.0000000000E+00      1          
 sfr_k_4                log                    factor                5.0000000000E+00      1.0000000000E-05      5.0000000000E+02       sfr_ks                1.0000000000E+00      0.0000000000E+00      1          
 sfr_k_5                log                    factor                5.0000000000E+00      1.0000000000E-05      5.0000000000E+02       sfr_ks                1.0000000000E+00      0.0000000000E+00      1          
 sfr_k_6                log                    factor                5.0000000000E+00      1.0000000000E-05      5.0000000000E+02       sfr_ks                1.0000000000E+00      0.0000000000E+00      1          
 sfr_k_7                log                    factor                5.0000000000E+00      1.0000000000E-05      5.0000000000E+02       sfr_ks                1.0000000000E+00      0.0000000000E+00      1          
 sfr_k_8                log                    factor                5.0000000000E+00      1.0000000000E-05      5.0000000000E+02       sfr_ks                1.0000000000E+00      0.0000000000E+00      1          
 sfr_k_9                log                    factor                5.0000000000E+00      1.0000000000E-05      5.0000000000E+02       sfr_ks                1.0000000000E+00      0.0000000000E+00      1          
 sfr_k_10               log                    factor                5.0000000000E+00      1.0000000000E-05      5.0000000000E+02       sfr_ks                1.0000000000E+00      0.0000000000E+00      1          
 sfr_k_11               log                    factor                5.0000000000E+00      1.0000000000E-05      5.0000000000E+02       sfr_ks                1.0000000000E+00      0.0000000000E+00      1          
 sfr_k_12               log                    factor                5.0000000000E+00      1.0000000000E-05      5.0000000000E+02       sfr_ks                1.0000000000E+00      0.0000000000E+00      1          
 sfr_k_13               log                    factor                5.0000000000E+00      1.0000000000E-05      5.0000000000E+02       sfr_ks                1.0000000000E+00      0.0000000000E+00      1          
 sfr_k_14               log                    factor                5.0000000000E+00      1.0000000000E-05      5.0000000000E+02       sfr_ks                1.0000000000E+00      0.0000000000E+00      1          
 sfr_k_15               log                    factor                5.0000000000E+00      1.0000000000E-05      5.0000000000E+02       sfr_ks                1.0000000000E+00      0.0000000000E+00      1          
 sfr_k_16               log                    factor                5.0000000000E+00      1.0000000000E-05      5.0000000000E+02       sfr_ks                1.0000000000E+00      0.0000000000E+00      1          
 sfr_k_17               log                    factor                5.0000000000E+00      1.0000000000E-05      5.0000000000E+02       sfr_ks                1.0000000000E+00      0.0000000000E+00      1          
 sfr_k_18               log                    factor                5.0000000000E+00      1.0000000000E-05      5.0000000000E+02       sfr_ks                1.0000000000E+00      0.0000000000E+00      1          
 sfr_k_19               log                    factor                5.0000000000E+00      1.0000000000E-05      5.0000000000E+02       sfr_ks                1.0000000000E+00      0.0000000000E+00      1          
 sfr_k_20               log                    factor                5.0000000000E+00      1.0000000000E-05      5.0000000000E+02       sfr_ks                1.0000000000E+00      0.0000000000E+00      1          
 sfr_k_21               log                    factor                5.0000000000E+00      1.0000000000E-05      5.0000000000E+02       sfr_ks                1.0000000000E+00      0.0000000000E+00      1          
 sfr_k_22               log                    factor                5.0000000000E+00      1.0000000000E-05      5.0000000000E+02       sfr_ks                1.0000000000E+00      0.0000000000E+00      1          
 vks_1_1                fixed                  factor                2.1380868000E-04      1.0000000000E-10      1.0000000000E-02       uzf_vks               1.0000000000E+00      0.0000000000E+00      1          
 vks_1_10               fixed                  factor                2.3137687000E-04      1.0000000000E-10      1.0000000000E-02       uzf_vks               1.0000000000E+00      0.0000000000E+00      1          
 vks_1_11               fixed                  factor                2.5535661000E-04      1.0000000000E-10      1.0000000000E-02       uzf_vks               1.0000000000E+00      0.0000000000E+00      1          
 vks_1_12               fixed                  factor                1.9596507000E-04      1.0000000000E-10      1.0000000000E-02       uzf_vks               1.0000000000E+00      0.0000000000E+00      1          
 vks_1_13               fixed                  factor                2.1796150000E-04      1.0000000000E-10      1.0000000000E-02       uzf_vks               1.0000000000E+00      0.0000000000E+00      1          
 vks_1_14               fixed                  factor                2.5107715000E-04      1.0000000000E-10      1.0000000000E-02       uzf_vks               1.0000000000E+00      0.0000000000E+00      1          
 vks_1_15               fixed                  factor                2.5512806000E-04      1.0000000000E-10      1.0000000000E-02       uzf_vks               1.0000000000E+00      0.0000000000E+00      1          
 vks_1_16               fixed                  factor                5.2207887000E-04      1.0000000000E-10      1.0000000000E-02       uzf_vks               1.0000000000E+00      0.0000000000E+00      1          
 vks_1_17               fixed                  factor                1.5175122000E-04      1.0000000000E-10      1.0000000000E-02       uzf_vks               1.0000000000E+00      0.0000000000E+00      1          
 vks_1_18               fixed                  factor                2.5874093000E-04      1.0000000000E-10      1.0000000000E-02       uzf_vks               1.0000000000E+00      0.0000000000E+00      1          
 vks_1_19               fixed                  factor                2.5118900000E-04      1.0000000000E-10      1.0000000000E-02       uzf_vks               1.0000000000E+00      0.0000000000E+00      1          
 vks_1_2                fixed                  factor                3.3759069000E-04      1.0000000000E-10      1.0000000000E-02       uzf_vks               1.0000000000E+00      0.0000000000E+00      1          
 vks_1_21               fixed                  factor                2.5111562000E-04      1.0000000000E-10      1.0000000000E-02       uzf_vks               1.0000000000E+00      0.0000000000E+00      1          
 vks_1_3                fixed                  factor                2.5687644000E-04      1.0000000000E-10      1.0000000000E-02       uzf_vks               1.0000000000E+00      0.0000000000E+00      1          
 vks_1_4                fixed                  factor                2.0455783000E-04      1.0000000000E-10      1.0000000000E-02       uzf_vks               1.0000000000E+00      0.0000000000E+00      1          
 vks_1_5                fixed                  factor                3.7540838000E-04      1.0000000000E-10      1.0000000000E-02       uzf_vks               1.0000000000E+00      0.0000000000E+00      1          
 vks_1_6                fixed                  factor                2.6420448000E-04      1.0000000000E-10      1.0000000000E-02       uzf_vks               1.0000000000E+00      0.0000000000E+00      1          
 vks_1_8                fixed                  factor                2.5118900000E-04      1.0000000000E-10      1.0000000000E-02       uzf_vks               1.0000000000E+00      0.0000000000E+00      1          
 vks_1_9                fixed                  factor                2.3574405000E-04      1.0000000000E-10      1.0000000000E-02       uzf_vks               1.0000000000E+00      0.0000000000E+00      1          
 vks_2_1                fixed                  factor                4.7785050000E-04      1.0000000000E-10      1.0000000000E-02       uzf_vks               1.0000000000E+00      0.0000000000E+00      1          
 vks_2_10               fixed                  factor                2.4326665000E-04      1.0000000000E-10      1.0000000000E-02       uzf_vks               1.0000000000E+00      0.0000000000E+00      1          
 vks_2_11               fixed                  factor                2.4225683000E-04      1.0000000000E-10      1.0000000000E-02       uzf_vks               1.0000000000E+00      0.0000000000E+00      1          
 vks_2_12               fixed                  factor                2.7654086000E-04      1.0000000000E-10      1.0000000000E-02       uzf_vks               1.0000000000E+00      0.0000000000E+00      1          
 vks_2_14               fixed                  factor                1.5811175000E-04      1.0000000000E-10      1.0000000000E-02       uzf_vks               1.0000000000E+00      0.0000000000E+00      1          
 vks_2_15               fixed                  factor                1.5854371000E-04      1.0000000000E-10      1.0000000000E-02       uzf_vks               1.0000000000E+00      0.0000000000E+00      1          
 vks_2_16               fixed                  factor                3.4259071000E-04      1.0000000000E-10      1.0000000000E-02       uzf_vks               1.0000000000E+00      0.0000000000E+00      1          
 vks_2_17               fixed                  factor                1.3680914000E-04      1.0000000000E-10      1.0000000000E-02       uzf_vks               1.0000000000E+00      0.0000000000E+00      1          
 vks_2_18               fixed                  factor                1.7856297000E-04      1.0000000000E-10      1.0000000000E-02       uzf_vks               1.0000000000E+00      0.0000000000E+00      1          
 vks_2_19               fixed                  factor                1.5848900000E-04      1.0000000000E-10      1.0000000000E-02       uzf_vks               1.0000000000E+00      0.0000000000E+00      1          
 vks_2_2                fixed                  factor                9.0662983000E-05      1.0000000000E-10      1.0000000000E-02       uzf_vks               1.0000000000E+00      0.0000000000E+00      1          
 vks_2_20               fixed                  factor                5.8535425000E-04      1.0000000000E-10      1.0000000000E-02       uzf_vks               1.0000000000E+00      0.0000000000E+00      1          
 vks_2_21               fixed                  factor                1.2761897000E-04      1.0000000000E-10      1.0000000000E-02       uzf_vks               1.0000000000E+00      0.0000000000E+00      1          
 vks_2_22               fixed                  factor                1.3790685000E-04      1.0000000000E-10      1.0000000000E-02       uzf_vks               1.0000000000E+00      0.0000000000E+00      1          
 vks_2_3                fixed                  factor                1.0735712000E-04      1.0000000000E-10      1.0000000000E-02       uzf_vks               1.0000000000E+00      0.0000000000E+00      1          
 vks_2_4                fixed                  factor                1.7882229000E-04      1.0000000000E-10      1.0000000000E-02       uzf_vks               1.0000000000E+00      0.0000000000E+00      1          
 vks_2_5                fixed                  factor                2.6945226000E-04      1.0000000000E-10      1.0000000000E-02       uzf_vks               1.0000000000E+00      0.0000000000E+00      1          
 vks_2_6                fixed                  factor                1.4844011000E-04      1.0000000000E-10      1.0000000000E-02       uzf_vks               1.0000000000E+00      0.0000000000E+00      1          
 vks_2_7                fixed                  factor                2.5147732000E-04      1.0000000000E-10      1.0000000000E-02       uzf_vks               1.0000000000E+00      0.0000000000E+00      1          
 vks_2_8                fixed                  factor                2.6871036000E-04      1.0000000000E-10      1.0000000000E-02       uzf_vks               1.0000000000E+00      0.0000000000E+00      1          
 vks_2_9                fixed                  factor                1.5667601000E-04      1.0000000000E-10      1.0000000000E-02       uzf_vks               1.0000000000E+00      0.0000000000E+00      1          
 vks_3_1                fixed                  factor                1.7824247000E-08      1.0000000000E-10      1.0000000000E-02       uzf_vks               1.0000000000E+00      0.0000000000E+00      1          
 vks_3_10               fixed                  factor                3.0900004000E-08      1.0000000000E-10      1.0000000000E-02       uzf_vks               1.0000000000E+00      0.0000000000E+00      1          
 vks_3_11               fixed                  factor                3.0900000000E-08      1.0000000000E-10      1.0000000000E-02       uzf_vks               1.0000000000E+00      0.0000000000E+00      1          
 vks_3_12               fixed                  factor                3.0899613000E-08      1.0000000000E-10      1.0000000000E-02       uzf_vks               1.0000000000E+00      0.0000000000E+00      1          
 vks_3_13               fixed                  factor                3.0900000000E-08      1.0000000000E-10      1.0000000000E-02       uzf_vks               1.0000000000E+00      0.0000000000E+00      1          
 vks_3_14               fixed                  factor                3.2022216000E-08      1.0000000000E-10      1.0000000000E-02       uzf_vks               1.0000000000E+00      0.0000000000E+00      1          
 vks_3_15               fixed                  factor                3.7758438000E-08      1.0000000000E-10      1.0000000000E-02       uzf_vks               1.0000000000E+00      0.0000000000E+00      1          
 vks_3_16               fixed                  factor                5.9524750000E-07      1.0000000000E-10      1.0000000000E-02       uzf_vks               1.0000000000E+00      0.0000000000E+00      1          
 vks_3_17               fixed                  factor                3.0231060000E-08      1.0000000000E-10      1.0000000000E-02       uzf_vks               1.0000000000E+00      0.0000000000E+00      1          
 vks_3_18               fixed                  factor                4.8399708000E-08      1.0000000000E-10      1.0000000000E-02       uzf_vks               1.0000000000E+00      0.0000000000E+00      1          
 vks_3_19               fixed                  factor                3.0411571000E-08      1.0000000000E-10      1.0000000000E-02       uzf_vks               1.0000000000E+00      0.0000000000E+00      1          
 vks_3_2                fixed                  factor                3.0554095000E-08      1.0000000000E-10      1.0000000000E-02       uzf_vks               1.0000000000E+00      0.0000000000E+00      1          
 vks_3_20               fixed                  factor                1.1469391000E-07      1.0000000000E-10      1.0000000000E-02       uzf_vks               1.0000000000E+00      0.0000000000E+00      1          
 vks_3_21               fixed                  factor                5.2081660000E-08      1.0000000000E-10      1.0000000000E-02       uzf_vks               1.0000000000E+00      0.0000000000E+00      1          
 vks_3_22               fixed                  factor                6.9303872000E-08      1.0000000000E-10      1.0000000000E-02       uzf_vks               1.0000000000E+00      0.0000000000E+00      1          
 vks_3_3                fixed                  factor                3.0895756000E-08      1.0000000000E-10      1.0000000000E-02       uzf_vks               1.0000000000E+00      0.0000000000E+00      1          
 vks_3_4                fixed                  factor                3.0900000000E-08      1.0000000000E-10      1.0000000000E-02       uzf_vks               1.0000000000E+00      0.0000000000E+00      1          
 vks_3_5                fixed                  factor                3.1948670000E-08      1.0000000000E-10      1.0000000000E-02       uzf_vks               1.0000000000E+00      0.0000000000E+00      1          
 vks_3_6                fixed                  factor                1.5556939000E-07      1.0000000000E-10      1.0000000000E-02       uzf_vks               1.0000000000E+00      0.0000000000E+00      1          
 vks_3_7                fixed                  factor                3.0900000000E-08      1.0000000000E-10      1.0000000000E-02       uzf_vks               1.0000000000E+00      0.0000000000E+00      1          
 vks_3_8                fixed                  factor                2.8771855000E-08      1.0000000000E-10      1.0000000000E-02       uzf_vks               1.0000000000E+00      0.0000000000E+00      1          
 vks_3_9                fixed                  factor                4.7335207000E-08      1.0000000000E-10      1.0000000000E-02       uzf_vks               1.0000000000E+00      0.0000000000E+00      1          
 surfk_1_1              fixed                  factor                2.5118900000E-04      1.0000000000E-10      1.0000000000E-02       uzf_surfk             1.0000000000E+00      0.0000000000E+00      1          
 surfk_1_10             fixed                  factor                2.5118900000E-04      1.0000000000E-10      1.0000000000E-02       uzf_surfk             1.0000000000E+00      0.0000000000E+00      1          
 surfk_1_11             fixed                  factor                2.5118900000E-04      1.0000000000E-10      1.0000000000E-02       uzf_surfk             1.0000000000E+00      0.0000000000E+00      1          
 surfk_1_12             fixed                  factor                2.5118900000E-04      1.0000000000E-10      1.0000000000E-02       uzf_surfk             1.0000000000E+00      0.0000000000E+00      1          
 surfk_1_13             fixed                  factor                2.5118900000E-04      1.0000000000E-10      1.0000000000E-02       uzf_surfk             1.0000000000E+00      0.0000000000E+00      1          
 surfk_1_14             fixed                  factor                2.5118900000E-04      1.0000000000E-10      1.0000000000E-02       uzf_surfk             1.0000000000E+00      0.0000000000E+00      1          
 surfk_1_15             fixed                  factor                2.5118900000E-04      1.0000000000E-10      1.0000000000E-02       uzf_surfk             1.0000000000E+00      0.0000000000E+00      1          
 surfk_1_16             fixed                  factor                2.5118900000E-04      1.0000000000E-10      1.0000000000E-02       uzf_surfk             1.0000000000E+00      0.0000000000E+00      1          
 surfk_1_17             fixed                  factor                2.5118900000E-04      1.0000000000E-10      1.0000000000E-02       uzf_surfk             1.0000000000E+00      0.0000000000E+00      1          
 surfk_1_18             fixed                  factor                2.5118900000E-04      1.0000000000E-10      1.0000000000E-02       uzf_surfk             1.0000000000E+00      0.0000000000E+00      1          
 surfk_1_19             fixed                  factor                2.5118900000E-04      1.0000000000E-10      1.0000000000E-02       uzf_surfk             1.0000000000E+00      0.0000000000E+00      1          
 surfk_1_2              fixed                  factor                2.5118900000E-04      1.0000000000E-10      1.0000000000E-02       uzf_surfk             1.0000000000E+00      0.0000000000E+00      1          
 surfk_1_21             fixed                  factor                2.5118900000E-04      1.0000000000E-10      1.0000000000E-02       uzf_surfk             1.0000000000E+00      0.0000000000E+00      1          
 surfk_1_3              fixed                  factor                2.5118900000E-04      1.0000000000E-10      1.0000000000E-02       uzf_surfk             1.0000000000E+00      0.0000000000E+00      1          
 surfk_1_4              fixed                  factor                3.9810700000E-04      1.0000000000E-10      1.0000000000E-02       uzf_surfk             1.0000000000E+00      0.0000000000E+00      1          
 surfk_1_5              fixed                  factor                3.9810700000E-04      1.0000000000E-10      1.0000000000E-02       uzf_surfk             1.0000000000E+00      0.0000000000E+00      1          
 surfk_1_6              fixed                  factor                2.5118900000E-04      1.0000000000E-10      1.0000000000E-02       uzf_surfk             1.0000000000E+00      0.0000000000E+00      1          
 surfk_1_8              fixed                  factor                2.5118900000E-04      1.0000000000E-10      1.0000000000E-02       uzf_surfk             1.0000000000E+00      0.0000000000E+00      1          
 surfk_1_9              fixed                  factor                2.5118900000E-04      1.0000000000E-10      1.0000000000E-02       uzf_surfk             1.0000000000E+00      0.0000000000E+00      1          
 surfk_2_1              fixed                  factor                2.5118900000E-04      1.0000000000E-10      1.0000000000E-02       uzf_surfk             1.0000000000E+00      0.0000000000E+00      1          
 surfk_2_10             fixed                  factor                2.5118900000E-04      1.0000000000E-10      1.0000000000E-02       uzf_surfk             1.0000000000E+00      0.0000000000E+00      1          
 surfk_2_11             fixed                  factor                2.5118900000E-04      1.0000000000E-10      1.0000000000E-02       uzf_surfk             1.0000000000E+00      0.0000000000E+00      1          
 surfk_2_12             fixed                  factor                2.5118900000E-04      1.0000000000E-10      1.0000000000E-02       uzf_surfk             1.0000000000E+00      0.0000000000E+00      1          
 surfk_2_14             fixed                  factor                1.5848900000E-04      1.0000000000E-10      1.0000000000E-02       uzf_surfk             1.0000000000E+00      0.0000000000E+00      1          
 surfk_2_15             fixed                  factor                1.5848900000E-04      1.0000000000E-10      1.0000000000E-02       uzf_surfk             1.0000000000E+00      0.0000000000E+00      1          
 surfk_2_16             fixed                  factor                1.5848900000E-04      1.0000000000E-10      1.0000000000E-02       uzf_surfk             1.0000000000E+00      0.0000000000E+00      1          
 surfk_2_17             fixed                  factor                1.5848900000E-04      1.0000000000E-10      1.0000000000E-02       uzf_surfk             1.0000000000E+00      0.0000000000E+00      1          
 surfk_2_18             fixed                  factor                1.5848900000E-04      1.0000000000E-10      1.0000000000E-02       uzf_surfk             1.0000000000E+00      0.0000000000E+00      1          
 surfk_2_19             fixed                  factor                1.5848900000E-04      1.0000000000E-10      1.0000000000E-02       uzf_surfk             1.0000000000E+00      0.0000000000E+00      1          
 surfk_2_2              fixed                  factor                1.0000000000E-04      1.0000000000E-10      1.0000000000E-02       uzf_surfk             1.0000000000E+00      0.0000000000E+00      1          
 surfk_2_20             fixed                  factor                6.3095700000E-04      1.0000000000E-10      1.0000000000E-02       uzf_surfk             1.0000000000E+00      0.0000000000E+00      1          
 surfk_2_21             fixed                  factor                1.5848900000E-04      1.0000000000E-10      1.0000000000E-02       uzf_surfk             1.0000000000E+00      0.0000000000E+00      1          
 surfk_2_22             fixed                  factor                1.5848900000E-04      1.0000000000E-10      1.0000000000E-02       uzf_surfk             1.0000000000E+00      0.0000000000E+00      1          
 surfk_2_3              fixed                  factor                1.0000000000E-04      1.0000000000E-10      1.0000000000E-02       uzf_surfk             1.0000000000E+00      0.0000000000E+00      1          
 surfk_2_4              fixed                  factor                2.5118900000E-04      1.0000000000E-10      1.0000000000E-02       uzf_surfk             1.0000000000E+00      0.0000000000E+00      1          
 surfk_2_5              fixed                  factor                2.5118900000E-04      1.0000000000E-10      1.0000000000E-02       uzf_surfk             1.0000000000E+00      0.0000000000E+00      1          
 surfk_2_6              fixed                  factor                1.5848900000E-04      1.0000000000E-10      1.0000000000E-02       uzf_surfk             1.0000000000E+00      0.0000000000E+00      1          
 surfk_2_7              fixed                  factor                2.5118900000E-04      1.0000000000E-10      1.0000000000E-02       uzf_surfk             1.0000000000E+00      0.0000000000E+00      1          
 surfk_2_8              fixed                  factor                2.5118900000E-04      1.0000000000E-10      1.0000000000E-02       uzf_surfk             1.0000000000E+00      0.0000000000E+00      1          
 surfk_2_9              fixed                  factor                2.5118900000E-04      1.0000000000E-10      1.0000000000E-02       uzf_surfk             1.0000000000E+00      0.0000000000E+00      1          
 surfk_3_1              fixed                  factor                3.0200000000E-08      1.0000000000E-10      1.0000000000E-02       uzf_surfk             1.0000000000E+00      0.0000000000E+00      1          