pcf
* control data
             restart          estimation
       409       212         9         0         4         0
         1         1              single               point         1         0         0          noobsreref
   2.000000E+01  -3.000000E+00   3.000000E-01   1.000000E-02        -7       999          lamforgive        noderforgive
   1.000000E+01   1.000000E+01   1.000000E-03         0         0
   1.000000E-01         1   1.100000E+00               noaui          nosenreuse        noboundscale
        30   1.000000E-02         3         3   1.000000E-02         3   0.000000E+00         1  -1.000000E+00
         0         0         0         0             jcosave          verboserec          jcosaveitn          reisaveitn          parsaveitn        noparsaverun
* singular value decomposition
         1
  10000000    1.000000E-06
1
* parameter groups
 upw_ks                  relative              1.0000000000E-02       0.0  switch                2.0000000000E+00       parabolic             1.0000000000E-05      5.0000000000E-01       smaller              
 uzf_vks                 relative              1.0000000000E-02       0.0  switch                2.0000000000E+00       parabolic             1.0000000000E-05      5.0000000000E-01       smaller              
 uzf_surfk               relative              1.0000000000E-02       0.0  switch                2.0000000000E+00       parabolic             1.0000000000E-05      5.0000000000E-01       smaller              
 sfr_ks                  relative              1.0000000000E-02       0.0  switch                2.0000000000E+00       parabolic             1.0000000000E-05      5.0000000000E-01       smaller              
 uzf_finf                relative              1.0000000000E-02       0.0  switch                2.0000000000E+00       parabolic             1.0000000000E-05      5.0000000000E-01       smaller              
 upw_vka                 relative              1.0000000000E-02       0.0  switch                2.0000000000E+00       parabolic             1.0000000000E-05      5.0000000000E-01       smaller              
 sfr_spil                relative              1.0000000000E-02       0.0  switch                2.0000000000E+00       parabolic             1.0000000000E-05      5.0000000000E-01       smaller              
 lak_cd                  relative              1.0000000000E-02       0.0  switch                2.0000000000E+00       parabolic             1.0000000000E-05      5.0000000000E-01       smaller              
 uzf_pet                 relative              1.0000000000E-02       0.0  switch                2.0000000000E+00       parabolic             1.0000000000E-05      5.0000000000E-01       smaller              
* parameter data
 lak_cond_1             fixed                  factor                1.0000000000E+00      1.1000000000E-10      1.1000000000E+10       lak_cd                1.0000000000E+00      0.0000000000E+00      1          
 lak_cond_2             fixed                  factor                1.0000000000E+00      1.1000000000E-10      1.1000000000E+10       lak_cd                1.0000000000E+00      0.0000000000E+00      1          
 sfr_k_1                log                    factor                2.9704301000E-02      1.0000000000E-05      5.0000000000E+02       sfr_ks                1.0000000000E+00      0.0000000000E+00      1          
 sfr_k_2                log                    factor                6.5762125000E-01      1.0000000000E-05      5.0000000000E+02       sfr_ks                1.0000000000E+00      0.0000000000E+00      1          
 sfr_k_3                log                    factor                4.7718095000E-01      1.0000000000E-05      5.0000000000E+02       sfr_ks                1.0000000000E+00      0.0000000000E+00      1          
 sfr_k_4                log                    factor                2.1461300000E-01      1.0000000000E-05      5.0000000000E+02       sfr_ks                1.0000000000E+00      0.0000000000E+00      1          
 sfr_k_5                log                    factor                1.1719907000E+00      1.0000000000E-05      5.0000000000E+02       sfr_ks                1.0000000000E+00      0.0000000000E+00      1          
 sfr_k_6                log                    factor                3.1843036000E+00      1.0000000000E-05      5.0000000000E+02       sfr_ks                1.0000000000E+00      0.0000000000E+00      1          
 sfr_k_7                log                    factor                8.6374377000E-02      1.0000000000E-05      5.0000000000E+02       sfr_ks                1.0000000000E+00      0.0000000000E+00      1          
 sfr_k_8                log                    factor                1.5262702000E-01      1.0000000000E-05      5.0000000000E+02       sfr_ks                1.0000000000E+00      0.0000000000E+00      1          
 sfr_k_9                log                    factor                3.9957519000E-02      1.0000000000E-05      5.0000000000E+02       sfr_ks                1.0000000000E+00      0.0000000000E+00      1          
 sfr_k_10               log                    factor                6.6476077000E-02      1.0000000000E-05      5.0000000000E+02       sfr_ks                1.0000000000E+00      0.0000000000E+00      1          
 sfr_k_11               log                    factor                1.1404454000E-01      1.0000000000E-05      5.0000000000E+02       sfr_ks                1.0000000000E+00      0.0000000000E+00      1          
 sfr_k_12               log                    factor                2.5862964000E+01      1.0000000000E-05      5.0000000000E+02       sfr_ks                1.0000000000E+00      0.0000000000E+00      1          
 sfr_k_13               log                    factor                1.4799742000E-01      1.0000000000E-05      5.0000000000E+02       sfr_ks                1.0000000000E+00      0.0000000000E+00      1          
 sfr_k_14               log                    factor                2.0797061000E-02      1.0000000000E-05      5.0000000000E+02       sfr_ks                1.0000000000E+00      0.0000000000E+00      1          
 sfr_k_15               log                    factor                5.2756585000E-01      1.0000000000E-05      5.0000000000E+02       sfr_ks                1.0000000000E+00      0.0000000000E+00      1          
 sfr_k_16               log                    factor                4.5910966000E+00      1.0000000000E-05      5.0000000000E+02       sfr_ks                1.0000000000E+00      0.0000000000E+00      1          
 sfr_k_17               log                    factor                2.1457049000E+01      1.0000000000E-05      5.0000000000E+02       sfr_ks                1.0000000000E+00      0.0000000000E+00      1          
 sfr_k_18               log                    factor                4.9740791000E-02      1.0000000000E-05      5.0000000000E+02       sfr_ks                1.0000000000E+00      0.0000000000E+00      1          
 sfr_k_19               log                    factor                8.8715939000E-02      1.0000000000E-05      5.0000000000E+02       sfr_ks                1.0000000000E+00      0.0000000000E+00      1          
 sfr_k_20               log                    factor                5.0214811000E-01      1.0000000000E-05      5.0000000000E+02       sfr_ks                1.0000000000E+00      0.0000000000E+00      1          
 sfr_k_21               log                    factor                7.6156396000E-03      1.0000000000E-05      5.0000000000E+02       sfr_ks                1.0000000000E+00      0.0000000000E+00      1          
 sfr_k_22               log                    factor                6.3565929000E-01      1.0000000000E-05      5.0000000000E+02       sfr_ks                1.0000000000E+00      0.0000000000E+00      1          
 ks_1                   log                    factor                9.2586907000E-01      1.0000000000E-05      5.0000000000E+02       upw_ks                1.0000000000E+00      0.0000000000E+00      1          
 ks_2                   log                    factor                1.2881424000E-01      1.0000000000E-05      5.0000000000E+02       upw_ks                1.0000000000E+00      0.0000000000E+00      1          
 ks_3                   log                    factor                7.1637132000E-01      1.0000000000E-05      5.0000000000E+02       upw_ks                1.0000000000E+00      0.0000000000E+00      1          
 ks_4                   log                    factor                1.6109386000E+00      1.0000000000E-05      5.0000000000E+02       upw_ks                1.0000000000E+00      0.0000000000E+00      1          
 ks_5                   log                    factor                1.7162020000E+01      1.0000000000E-05      5.0000000000E+02       upw_ks                1.0000000000E+00      0.0000000000E+00      1          
 ks_6                   log                    factor                2.4829580000E+02      1.0000000000E-05      5.0000000000E+02       upw_ks                1.0000000000E+00      0.0000000000E+00      1          
 ks_7                   log                    factor                1.0465047000E-05      1.0000000000E-05      5.0000000000E+02       upw_ks                1.0000000000E+00      0.0000000000E+00      1          
 ks_8                   log                    factor                4.3534150000E+00      1.0000000000E-05      5.0000000000E+02       upw_ks                1.0000000000E+00      0.0000000000E+00      1          
 ks_9                   log                    factor                1.7546064000E+00      1.0000000000E-05      5.0000000000E+02       upw_ks                1.0000000000E+00      0.0000000000E+00      1          
 ks_10                  log                    factor                8.3161690000E-01      1.0000000000E-05      5.0000000000E+02       upw_ks                1.0000000000E+00      0.0000000000E+00      1          
 ks_11                  log                    factor                8.6313447000E+00      1.0000000000E-05      5.0000000000E+02       upw_ks                1.0000000000E+00      0.0000000000E+00      1          
 ks_12                  log                    factor                1.7815014000E+00      1.0000000000E-05      5.0000000000E+02       upw_ks                1.0000000000E+00      0.0000000000E+00      1          
 ks_13                  log                    factor                5.3494638000E+00      1.0000000000E-05      5.0000000000E+02       upw_ks                1.0000000000E+00      0.0000000000E+00      1          
 ks_14                  log                    factor                2.6600587000E+00      1.0000000000E-05      5.0000000000E+02       upw_ks                1.0000000000E+00      0.0000000000E+00      1          
 ks_15                  log                    factor                8.2107628000E+01      1.0000000000E-05      5.0000000000E+02       upw_ks                1.0000000000E+00      0.0000000000E+00      1          
 ks_16                  log                    factor                1.6695800000E+00      1.0000000000E-05      5.0000000000E+02       upw_ks                1.0000000000E+00      0.0000000000E+00      1          
 ks_17                  log                    factor                3.0276993000E+00      1.0000000000E-05      5.0000000000E+02       upw_ks                1.0000000000E+00      0.0000000000E+00      1          
 ks_18                  log                    factor                4.3373666000E+01      1.0000000000E-05      5.0000000000E+02       upw_ks                1.0000000000E+00      0.0000000000E+00      1          
 ks_19                  log                    factor                1.2670708000E+00      1.0000000000E-05      5.0000000000E+02       upw_ks                1.0000000000E+00      0.0000000000E+00      1          
 ks_20                  log                    factor                8.6309107000E-01      1.0000000000E-05      5.0000000000E+02       upw_ks                1.0000000000E+00      0.0000000000E+00      1          
 ks_21                  log                    factor                4.5216104000E-01      1.0000000000E-05      5.0000000000E+02       upw_ks                1.0000000000E+00      0.0000000000E+00      1          
 ks_22                  log                    factor                2.4606356000E+02      1.0000000000E-05      5.0000000000E+02       upw_ks                1.0000000000E+00      0.0000000000E+00      1          
 ks_23                  log                    factor                7.0739873000E-02      1.0000000000E-05      5.0000000000E+02       upw_ks                1.0000000000E+00      0.0000000000E+00      1          
 ks_24                  log                    factor                8.4670050000E-02      1.0000000000E-05      5.0000000000E+02       upw_ks                1.0000000000E+00      0.0000000000E+00      1          
 ks_25                  log                    factor                5.0000000000E+02      1.0000000000E-05      5.0000000000E+02       upw_ks                1.0000000000E+00      0.0000000000E+00      1          
 ks_26                  log                    factor                3.3341902000E-01      1.0000000000E-05      5.0000000000E+02       upw_ks                1.0000000000E+00      0.0000000000E+00      1          
 ks_27                  log                    factor                5.5977494000E-01      1.0000000000E-05      5.0000000000E+02       upw_ks                1.0000000000E+00      0.0000000000E+00      1          
 ks_28                  log                    factor                3.2274050000E+00      1.0000000000E-05      5.0000000000E+02       upw_ks                1.0000000000E+00      0.0000000000E+00      1          
 ks_29                  log                    factor                1.0000000000E-05      1.0000000000E-05      5.0000000000E+02       upw_ks                1.0000000000E+00      0.0000000000E+00      1          
 ks_30                  log                    factor                5.9594750000E-01      1.0000000000E-05      5.0000000000E+02       upw_ks                1.0000000000E+00      0.0000000000E+00      1          
 ks_31                  log                    factor                1.9979434000E-04      1.0000000000E-05      5.0000000000E+02       upw_ks                1.0000000000E+00      0.0000000000E+00      1          
 ks_32                  log                    factor                1.0306573000E-01      1.0000000000E-05      5.0000000000E+02       upw_ks                1.0000000000E+00      0.0000000000E+00      1          
 ks_33                  log                    factor                4.9119517000E+01      1.0000000000E-05      5.0000000000E+02       upw_ks                1.0000000000E+00      0.0000000000E+00      1          
 ks_34                  log                    factor                1.9639199000E-04      1.0000000000E-05      5.0000000000E+02       upw_ks                1.0000000000E+00      0.0000000000E+00      1          
 ks_35                  log                    factor                6.0314735000E-04      1.0000000000E-05      5.0000000000E+02       upw_ks                1.0000000000E+00      0.0000000000E+00      1          
 ks_36                  log                    factor                2.2560218000E-04      1.0000000000E-05      5.0000000000E+02       upw_ks                1.0000000000E+00      0.0000000000E+00      1          
 ks_37                  log                    factor                2.2565773000E+00      1.0000000000E-05      5.0000000000E+02       upw_ks                1.0000000000E+00      0.0000000000E+00      1          
 ks_38                  log                    factor                1.9590758000E-04      1.0000000000E-05      5.0000000000E+02       upw_ks                1.0000000000E+00      0.0000000000E+00      1          
 ks_39                  log                    factor                2.6150762000E+01      1.0000000000E-05      5.0000000000E+02       upw_ks                1.0000000000E+00      0.0000000000E+00      1          
 ks_40                  log                    factor                1.1424181000E+00      1.0000000000E-05      5.0000000000E+02       upw_ks                1.0000000000E+00      0.0000000000E+00      1          
 ks_41                  log                    factor                2.2751599000E+00      1.0000000000E-05      5.0000000000E+02       upw_ks                1.0000000000E+00      0.0000000000E+00      1          
 ks_42                  log                    factor                1.8129130000E-01      1.0000000000E-05      5.0000000000E+02       upw_ks                1.0000000000E+00      0.0000000000E+00      1          
 ks_43                  log                    factor                9.8936753000E+00      1.0000000000E-05      5.0000000000E+02       upw_ks                1.0000000000E+00      0.0000000000E+00      1          
 ks_44                  log                    factor                1.6098922000E-02      1.0000000000E-05      5.0000000000E+02       upw_ks                1.0000000000E+00      0.0000000000E+00      1          
 ks_45                  log                    factor                1.4209606000E+00      1.0000000000E-05      5.0000000000E+02       upw_ks                1.0000000000E+00      0.0000000000E+00      1          
 ks_46                  log                    factor                5.3037556000E+00      1.0000000000E-05      5.0000000000E+02       upw_ks                1.0000000000E+00      0.0000000000E+00      1          
 ks_47                  log                    factor                8.3763547000E+00      1.0000000000E-05      5.0000000000E+02       upw_ks                1.0000000000E+00      0.0000000000E+00      1          
 ks_48                  log                    factor                2.1224745000E-04      1.0000000000E-05      5.0000000000E+02       upw_ks                1.0000000000E+00      0.0000000000E+00      1          
 ks_49                  log                    factor                2.3737890000E+00      1.0000000000E-05      5.0000000000E+02       upw_ks                1.0000000000E+00      0.0000000000E+00      1          
 ks_50                  log                    factor                4.5869248000E-05      1.0000000000E-05      5.0000000000E+02       upw_ks                1.0000000000E+00      0.0000000000E+00      1          
 ks_51                  log                    factor                3.4436051000E-02      1.0000000000E-05      5.0000000000E+02       upw_ks                1.0000000000E+00      0.0000000000E+00      1          
 ks_52                  log                    factor                4.8490682000E+00      1.0000000000E-05      5.0000000000E+02       upw_ks                1.0000000000E+00      0.0000000000E+00      1          
 ks_53                  log                    factor                1.7575800000E-02      1.0000000000E-05      5.0000000000E+02       upw_ks                1.0000000000E+00      0.0000000000E+00      1          
 ks_54                  log                    factor                2.1042026000E+01      1.0000000000E-05      5.0000000000E+02       upw_ks                1.0000000000E+00      0.0000000000E+00      1          
 ks_55                  log                    factor                7.2858796000E+01      1.0000000000E-05      5.0000000000E+02       upw_ks                1.0000000000E+00      0.0000000000E+00      1          
 ks_56                  log                    factor                1.2397197000E+01      1.0000000000E-05      5.0000000000E+02       upw_ks                1.0000000000E+00      0.0000000000E+00      1          
 ks_57                  log                    factor                2.5423603000E-01      1.0000000000E-05      5.0000000000E+02       upw_ks                1.0000000000E+00      0.0000000000E+00      1          
 ks_58                  log                    factor                5.5145567000E-03      1.0000000000E-05      5.0000000000E+02       upw_ks                1.0000000000E+00      0.0000000000E+00      1          
 ks_59                  log                    factor                1.0916909000E+01      1.0000000000E-05      5.0000000000E+02       upw_ks                1.0000000000E+00      0.0000000000E+00      1          
 ks_60                  log                    factor                3.3128369000E-02      1.0000000000E-05      5.0000000000E+02       upw_ks                1.0000000000E+00      0.0000000000E+00      1          
 ks_61                  log                    factor                2.8978897000E-01      1.0000000000E-05      5.0000000000E+02       upw_ks                1.0000000000E+00      0.0000000000E+00      1          
 ks_62                  log                    factor                1.0573058000E+01      1.0000000000E-05      5.0000000000E+02       upw_ks                1.0000000000E+00      0.0000000000E+00      1          
 ks_63                  log                    factor                5.9570551000E-04      1.0000000000E-05      5.0000000000E+02       upw_ks                1.0000000000E+00      0.0000000000E+00      1          
 ks_64                  log                    factor                1.2312432000E-02      1.0000000000E-05      5.0000000000E+02       upw_ks                1.0000000000E+00      0.0000000000E+00      1          
 ks_65                  log                    factor                5.5266797000E+00      1.0000000000E-05      5.0000000000E+02       upw_ks                1.0000000000E+00      0.0000000000E+00      1          
 ks_66                  log                    factor                8.5955623000E+00      1.0000000000E-05      5.0000000000E+02       upw_ks                1.0000000000E+00      0.0000000000E+00      1          
 ks_67                  log                    factor                9.0547377000E-03      1.0000000000E-05      5.0000000000E+02       upw_ks                1.0000000000E+00      0.0000000000E+00      1          
 ks_68                  log                    factor                7.3489440000E-01      1.0000000000E-05      5.0000000000E+02       upw_ks                1.0000000000E+00      0.0000000000E+00      1          
 ks_69                  log                    factor                3.7687809000E+00      1.0000000000E-05      5.0000000000E+02       upw_ks                1.0000000000E+00      0.0000000000E+00      1          
 ks_70                  log                    factor                1.0000000000E-05      1.0000000000E-05      5.0000000000E+02       upw_ks                1.0000000000E+00      0.0000000000E+00      1          
 ks_71                  log                    factor                8.7462249000E-05      1.0000000000E-05      5.0000000000E+02       upw_ks                1.0000000000E+00      0.0000000000E+00      1          
 ks_72                  log                    factor                1.0008051000E-04      1.0000000000E-05      5.0000000000E+02       upw_ks                1.0000000000E+00      0.0000000000E+00      1          
 ks_73                  log                    factor                1.0062422000E-04      1.0000000000E-05      5.0000000000E+02       upw_ks                1.0000000000E+00      0.0000000000E+00      1          
 ks_74                  log                    factor                1.4027995000E-05      1.0000000000E-05      5.0000000000E+02       upw_ks                1.0000000000E+00      0.0000000000E+00      1          
 ks_75                  log                    factor                1.9216871000E-04      1.0000000000E-05      5.0000000000E+02       upw_ks                1.0000000000E+00      0.0000000000E+00      1          
 ks_76                  log                    factor                1.0227766000E-04      1.0000000000E-05      5.0000000000E+02       upw_ks                1.0000000000E+00      0.0000000000E+00      1          
 ks_77                  log                    factor                1.6188603000E-05      1.0000000000E-05      5.0000000000E+02       upw_ks                1.0000000000E+00      0.0000000000E+00      1          
 ks_78                  log                    factor                1.0030992000E-05      1.0000000000E-05      5.0000000000E+02       upw_ks                1.0000000000E+00      0.0000000000E+00      1          
 ks_79                  log                    factor                9.9835489000E-05      1.0000000000E-05      5.0000000000E+02       upw_ks                1.0000000000E+00      0.0000000000E+00      1          
 ks_80                  log                    factor                2.0259543000E+02      1.0000000000E-05      5.0000000000E+02       upw_ks                1.0000000000E+00      0.0000000000E+00      1          
 ks_81                  log                    factor                9.0836530000E-05      1.0000000000E-05      5.0000000000E+02       upw_ks                1.0000000000E+00      0.0000000000E+00      1          
 ks_82                  log                    factor                2.0557937000E+01      1.0000000000E-05      5.0000000000E+02       upw_ks                1.0000000000E+00      0.0000000000E+00      1          
 ks_83                  log                    factor                6.5732722000E+00      1.0000000000E-05      5.0000000000E+02       upw_ks                1.0000000000E+00      0.0000000000E+00      1          
 ks_84                  log                    factor                9.0506142000E-05      1.0000000000E-05      5.0000000000E+02       upw_ks                1.0000000000E+00      0.0000000000E+00      1          
 ks_85                  log                    factor                1.2939731000E-05      1.0000000000E-05      5.0000000000E+02       upw_ks                1.0000000000E+00      0.0000000000E+00      1          
 ks_86                  log                    factor                1.3228034000E-04      1.0000000000E-05      5.0000000000E+02       upw_ks                1.0000000000E+00      0.0000000000E+00      1          
 ks_87                  log                    factor                1.0086497000E+02      1.0000000000E-05      5.0000000000E+02       upw_ks                1.0000000000E+00      0.0000000000E+00      1          
 ks_88                  log                    factor                1.6447632000E+01      1.0000000000E-05      5.0000000000E+02       upw_ks                1.0000000000E+00      0.0000000000E+00      1          
 ks_89                  log                    factor                8.0248544000E-05      1.0000000000E-05      5.0000000000E+02       upw_ks                1.0000000000E+00      0.0000000000E+00      1          
 ks_90                  log                    factor                4.4840062000E+00      1.0000000000E-05      5.0000000000E+02       upw_ks                1.0000000000E+00      0.0000000000E+00      1          
 ks_91                  log                    factor                1.4750765000E+01      1.0000000000E-05      5.0000000000E+02       upw_ks                1.0000000000E+00      0.0000000000E+00      1          
 ks_92                  log                    factor                1.0204659000E-04      1.0000000000E-05      5.0000000000E+02       upw_ks                1.0000000000E+00      0.0000000000E+00      1          
 ks_93                  log                    factor                3.2862930000E-02      1.0000000000E-05      5.0000000000E+02       upw_ks                1.0000000000E+00      0.0000000000E+00      1          
 ks_94                  log                    factor                3.1403198000E-05      1.0000000000E-05      5.0000000000E+02       upw_ks                1.0000000000E+00      0.0000000000E+00      1          
 ks_95                  log                    factor                1.0001176000E-04      1.0000000000E-05      5.0000000000E+02       upw_ks                1.0000000000E+00      0.0000000000E+00      1          
 ks_96                  log                    factor                1.7294603000E-04      1.0000000000E-05      5.0000000000E+02       upw_ks                1.0000000000E+00      0.0000000000E+00      1          
 ks_97                  log                    factor                5.5192295000E-05      1.0000000000E-05      5.0000000000E+02       upw_ks                1.0000000000E+00      0.0000000000E+00      1          
 ks_98                  log                    factor                1.0351697000E-04      1.0000000000E-05      5.0000000000E+02       upw_ks                1.0000000000E+00      0.0000000000E+00      1          
 ks_99                  log                    factor                1.0655668000E-04      1.0000000000E-05      5.0000000000E+02       upw_ks                1.0000000000E+00      0.0000000000E+00      1          
 ks_100                 log                    factor                1.0000000000E-05      1.0000000000E-05      5.0000000000E+02       upw_ks                1.0000000000E+00      0.0000000000E+00      1          
 ks_101                 log                    factor                8.4329541000E-04      1.0000000000E-05      5.0000000000E+02       upw_ks                1.0000000000E+00      0.0000000000E+00      1          
 ks_102                 log                    factor                7.9635059000E-05      1.0000000000E-05      5.0000000000E+02       upw_ks                1.0000000000E+00      0.0000000000E+00      1          
 ks_103                 log                    factor                3.6836251000E-04      1.0000000000E-05      5.0000000000E+02       upw_ks                1.0000000000E+00      0.0000000000E+00      1          