# SFR package for MODFLOW-NWT generated by Flopy 3.3.5
OPTIONS
REACHINPUT
TABFILES 111 40177
END
3752 690 0 0 86400.00000000 0.00010000 55 81 1 
1 10 68 1 1 300.0 422.11 0.03170805 0.5 0.056572344
1 11 68 1 2 362.0 406.29 0.03170805 0.5 0.056572344
1 12 69 1 3 424.0 381.24 0.03170805 0.5 0.056572344
1 13 70 1 4 424.0 366.54 0.03170805 0.5 0.056572344
1 14 69 1 5 362.0 358.61 0.03170805 0.5 0.056572344
1 15 69 1 6 362.0 351.21 0.03170805 0.5 0.056572344
1 16 68 1 7 424.0 337.83 0.03170805 0.5 0.056572344
1 13 46 2 1 424.0 360.69 0.021233737 0.5 0.002209795
1 14 47 2 2 362.0 349.24 0.021233737 0.5 0.002209795
1 15 47 2 3 300.0 336.91 0.021233737 0.5 0.002209795
1 16 47 2 4 300.0 326.62 0.021233737 0.5 0.002209795
1 17 47 2 5 300.0 320.93 0.021233737 0.5 0.002209795
1 18 47 2 6 362.0 314.76 0.021233737 0.5 0.002209795
1 19 48 2 7 362.0 301.19 0.021233737 0.5 0.002209795
1 20 48 2 8 300.0 289.07 0.021233737 0.5 0.002209795
1 21 48 2 9 362.0 280.05 0.021233737 0.5 0.002209795
1 22 49 2 10 362.0 276.79 0.021233737 0.5 0.002209795
1 23 49 2 11 300.0 272.79 0.021233737 0.5 0.002209795
1 24 49 2 12 362.0 269.98 0.021233737 0.5 0.002209795
1 25 50 2 13 362.0 266.03 0.021233737 0.5 0.002209795
1 14 64 3 1 424.0 373.21 0.034764152 0.5 0.056572344
1 15 65 3 2 424.0 363.22 0.034764152 0.5 0.056572344
1 16 66 3 3 424.0 328.99 0.034764152 0.5 0.056572344
1 17 67 4 1 636.0 325.02 0.0058560264 0.5 0.056572344
1 18 68 4 2 424.0 322.84 0.0058560264 0.5 0.056572344
1 19 69 4 3 362.0 319.16 0.0058560264 0.5 0.056572344
1 20 69 4 4 362.0 315.67 0.0058560264 0.5 0.056572344
1 21 70 4 5 424.0 313.07 0.0058560264 0.5 0.056572344
1 22 71 4 6 362.0 309.97 0.0058560264 0.5 0.056572344
1 17 76 5 1 424.0 307.2121 0.006071882 0.5 0.056572344
1 18 77 5 2 362.0 301.1121 0.006071882 0.5 0.056572344
1 19 77 5 3 362.0 300.0221 0.006071882 0.5 0.056572344
1 20 78 5 4 424.0 299.1821 0.006071882 0.5 0.056572344
1 21 79 5 5 424.0 295.3421 0.006071882 0.5 0.056572344
1 22 80 5 6 362.0 289.6621 0.006071882 0.5 0.056572344
1 23 80 5 7 362.0 289.3221 0.006071882 0.5 0.056572344
1 24 81 5 8 424.0 288.1221 0.006071882 0.5 0.056572344
1 19 56 6 1 424.0 328.75 0.022123775 0.5 0.002209795
1 20 55 6 2 424.0 316.66 0.022123775 0.5 0.002209795
1 21 54 6 3 362.0 301.91 0.022123775 0.5 0.002209795
1 22 54 6 4 362.0 291.32 0.022123775 0.5 0.002209795
1 23 53 6 5 424.0 282.01 0.022123775 0.5 0.002209795
1 24 52 6 6 424.0 270.04 0.022123775 0.5 0.002209795
1 25 51 6 7 424.0 265.83 0.022123775 0.5 0.002209795
1 20 83 7 1 424.0 305.91 0.008061011 0.5 0.056572344
1 21 82 7 2 424.0 299.93 0.008061011 0.5 0.056572344
1 22 81 7 3 362.0 293.71 0.008061011 0.5 0.056572344
1 23 81 7 4 362.0 292.0 0.008061011 0.5 0.056572344
1 24 82 7 5 362.0 290.32 0.008061011 0.5 0.056572344
1 22 72 8 1 512.0 308.1 0.004429043 0.5 0.056572344
1 22 73 8 2 300.0 305.67 0.004429043 0.5 0.056572344
1 22 74 8 3 362.0 304.7 0.004429043 0.5 0.056572344
1 21 75 8 4 424.0 303.35 0.004429043 0.5 0.056572344
1 22 76 8 5 424.0 301.68 0.004429043 0.5 0.056572344
1 23 77 8 6 362.0 299.55 0.004429043 0.5 0.056572344
1 24 77 8 7 362.0 298.28 0.004429043 0.5 0.056572344
1 25 78 8 8 424.0 297.16 0.004429043 0.5 0.056572344
1 24 79 8 9 424.0 293.39 0.004429043 0.5 0.056572344
1 25 80 8 10 362.0 291.43 0.004429043 0.5 0.056572344
1 25 81 8 11 300.0 289.25 0.004429043 0.5 0.056572344
1 23 8 9 1 424.0 482.0 0.015614258 0.5 0.002209795
1 24 9 9 2 362.0 467.61 0.015614258 0.5 0.002209795
1 25 9 9 3 362.0 455.04 0.015614258 0.5 0.002209795
1 26 10 9 4 424.0 425.84 0.015614258 0.5 0.002209795
1 27 11 9 5 424.0 411.18 0.015614258 0.5 0.002209795
1 28 12 9 6 424.0 398.7 0.015614258 0.5 0.002209795
1 29 13 9 7 362.0 398.68 0.015614258 0.5 0.002209795
1 30 13 9 8 362.0 395.46 0.015614258 0.5 0.002209795
1 31 14 9 9 362.0 390.25 0.015614258 0.5 0.002209795
1 31 15 9 10 300.0 390.24 0.015614258 0.5 0.002209795
1 31 16 9 11 362.0 390.23 0.015614258 0.5 0.002209795
1 32 17 9 12 424.0 387.78 0.015614258 0.5 0.002209795
1 33 18 9 13 362.0 382.22 0.015614258 0.5 0.002209795
1 33 19 9 14 300.0 379.0 0.015614258 0.5 0.002209795
1 33 20 9 15 300.0 376.67 0.015614258 0.5 0.002209795
1 33 21 9 16 300.0 374.92 0.015614258 0.5 0.002209795
1 33 22 9 17 362.0 372.98 0.015614258 0.5 0.002209795
1 34 23 9 18 424.0 370.22 0.015614258 0.5 0.002209795
1 35 24 9 19 424.0 366.47 0.015614258 0.5 0.002209795
1 36 25 9 20 424.0 362.62 0.015614258 0.5 0.002209795
1 37 26 9 21 424.0 358.46 0.015614258 0.5 0.002209795
1 23 44 10 1 424.0 417.41 0.06889963 0.5 0.002209795
1 24 45 10 2 424.0 385.03 0.06889963 0.5 0.002209795
1 25 46 10 3 362.0 352.63 0.06889963 0.5 0.002209795
1 25 47 10 4 300.0 296.95 0.06889963 0.5 0.002209795
1 25 48 10 5 300.0 280.14 0.06889963 0.5 0.002209795
1 25 49 10 6 362.0 267.76 0.06889963 0.5 0.002209795
1 23 64 11 1 424.0 388.05 0.024956953 0.5 0.056572344
1 24 65 11 2 362.0 361.74 0.024956953 0.5 0.056572344
1 24 66 11 3 362.0 344.89 0.024956953 0.5 0.056572344
1 25 67 11 4 424.0 337.35 0.024956953 0.5 0.056572344
1 24 68 11 5 362.0 328.55 0.024956953 0.5 0.056572344
1 24 69 11 6 300.0 324.6 0.024956953 0.5 0.056572344
1 24 70 11 7 362.0 319.5 0.024956953 0.5 0.056572344
1 23 71 11 8 424.0 312.68 0.024956953 0.5 0.056572344
1 25 20 12 1 300.0 549.69 0.037047382 0.5 0.002209795
1 25 21 12 2 362.0 536.66 0.037047382 0.5 0.002209795
1 26 22 12 3 424.0 512.18 0.037047382 0.5 0.002209795
1 27 23 12 4 424.0 463.55 0.037047382 0.5 0.002209795
1 28 24 12 5 362.0 400.94 0.037047382 0.5 0.002209795
1 29 24 12 6 300.0 385.83 0.037047382 0.5 0.002209795
1 30 24 12 7 362.0 378.01 0.037047382 0.5 0.002209795
1 31 25 12 8 362.0 374.93 0.037047382 0.5 0.002209795
1 32 25 12 9 362.0 372.41 0.037047382 0.5 0.002209795
1 33 24 12 10 362.0 369.55 0.037047382 0.5 0.002209795
1 34 24 12 11 362.0 368.1 0.037047382 0.5 0.002209795
1 35 25 12 12 424.0 364.59 0.037047382 0.5 0.002209795
1 36 26 12 13 424.0 360.79 0.037047382 0.5 0.002209795
1 37 27 12 14 362.0 357.34 0.037047382 0.5 0.002209795
1 25 82 13 1 662.0 286.92 0.002120591 0.5 0.056572344
1 26 82 13 2 300.0 285.99 0.002120591 0.5 0.056572344
1 26 83 13 3 300.0 285.78 0.002120591 0.5 0.056572344
1 27 83 13 4 300.0 285.77 0.002120591 0.5 0.056572344
1 28 83 13 5 300.0 285.7 0.002120591 0.5 0.056572344
1 29 83 13 6 300.0 285.15 0.002120591 0.5 0.056572344
1 30 83 13 7 362.0 284.01 0.002120591 0.5 0.056572344
1 31 84 13 8 362.0 280.8 0.002120591 0.5 0.056572344
1 26 50 14 1 724.0 262.2 0.0053756223 0.5 0.002209795
1 27 50 14 2 300.0 258.34 0.0053756223 0.5 0.002209795
1 28 50 14 3 300.0 254.9 0.0053756223 0.5 0.002209795
1 29 50 14 4 300.0 253.47 0.0053756223 0.5 0.002209795
1 28 54 15 1 300.0 275.59 0.015952382 0.5 0.002209795
1 28 53 15 2 300.0 265.32 0.015952382 0.5 0.002209795
1 28 52 15 3 362.0 257.43 0.015952382 0.5 0.002209795
1 29 51 15 4 424.0 253.48 0.015952382 0.5 0.002209795
1 33 68 16 1 300.0 330.78 0.008462583 0.5 0.056572344
1 33 69 16 2 362.0 325.44 0.008462583 0.5 0.056572344
1 32 70 16 3 362.0 319.26 0.008462583 0.5 0.056572344
1 32 71 16 4 362.0 316.39 0.008462583 0.5 0.056572344
1 31 72 16 5 424.0 312.19 0.008462583 0.5 0.056572344
1 30 73 16 6 424.0 305.43 0.008462583 0.5 0.056572344
1 29 74 16 7 362.0 302.11 0.008462583 0.5 0.056572344
1 29 75 16 8 300.0 299.88 0.008462583 0.5 0.056572344
1 29 76 16 9 362.0 298.58 0.008462583 0.5 0.056572344
1 30 77 16 10 362.0 297.73 0.008462583 0.5 0.056572344
1 30 78 16 11 300.0 296.89 0.008462583 0.5 0.056572344
1 30 79 16 12 300.0 294.81 0.008462583 0.5 0.056572344
1 30 80 16 13 300.0 292.56 0.008462583 0.5 0.056572344
1 30 81 16 14 362.0 290.3 0.008462583 0.5 0.056572344
1 31 82 16 15 362.0 287.63 0.008462583 0.5 0.056572344
1 31 83 16 16 300.0 282.71 0.008462583 0.5 0.056572344
1 32 83 16 17 362.0 280.8 0.008462583 0.5 0.056572344
1 30 50 17 1 512.0 250.2 0.003570145 0.5 0.002209795
1 31 50 17 2 300.0 248.56 0.003570145 0.5 0.002209795
1 32 50 17 3 300.0 246.23 0.003570145 0.5 0.002209795
1 30 88 18 1 300.0 307.3 0.014102198 0.5 0.056572344
1 30 87 18 2 362.0 300.63 0.014102198 0.5 0.056572344
1 31 86 18 3 424.0 294.88 0.014102198 0.5 0.056572344
1 32 85 18 4 362.0 286.88 0.014102198 0.5 0.056572344
1 31 43 19 1 424.0 531.01 0.114867225 0.5 0.002209795
1 32 44 19 2 362.0 462.07 0.114867225 0.5 0.002209795
1 32 45 19 3 362.0 395.24 0.114867225 0.5 0.002209795
1 33 46 19 4 362.0 314.87 0.114867225 0.5 0.002209795
1 33 47 19 5 300.0 275.04 0.114867225 0.5 0.002209795
1 33 48 19 6 300.0 260.99 0.114867225 0.5 0.002209795
1 33 49 19 7 300.0 254.18 0.114867225 0.5 0.002209795
1 32 84 20 1 450.0 278.5423 1e-04 0.5 0.056572344
1 33 50 21 1 512.0 243.92 0.0045393556 0.5 0.002209795
1 34 51 21 2 424.0 242.68 0.0045393556 0.5 0.002209795
1 35 52 21 3 362.0 240.33 0.0045393556 0.5 0.002209795
1 36 52 21 4 362.0 237.91 0.0045393556 0.5 0.002209795
1 37 53 21 5 362.0 235.54 0.0045393556 0.5 0.002209795
1 38 53 21 6 362.0 234.26 0.0045393556 0.5 0.002209795
1 39 54 21 7 362.0 231.93 0.0045393556 0.5 0.002209795
1 40 54 21 8 300.0 231.45 0.0045393556 0.5 2.209795
1 41 54 21 9 300.0 231.44 0.0045393556 0.5 2.209795
1 42 54 21 10 300.0 230.47 0.0045393556 0.5 2.209795
1 43 54 21 11 300.0 227.54 0.0045393556 0.5 0.002209795
1 44 54 21 12 300.0 224.98 0.0045393556 0.5 0.002209795
1 45 54 21 13 300.0 223.43 0.0045393556 0.5 0.002209795
1 46 54 21 14 300.0 221.24 0.0045393556 0.5 0.002209795
1 47 54 21 15 300.0 219.28 0.0045393556 0.5 0.002209795
1 48 54 21 16 300.0 217.88 0.0045393556 0.5 0.002209795
1 49 54 21 17 300.0 215.86 0.0045393556 0.5 0.002209795
1 50 54 21 18 300.0 214.82 0.0045393556 0.5 0.002209795
1 51 54 21 19 300.0 213.65 0.0045393556 0.5 0.002209795
1 52 54 21 20 362.0 213.47 0.0045393556 0.5 0.002209795
1 33 84 22 1 512.0 277.7575 0.00068965217 0.5 0.056572344
1 34 84 22 2 300.0 277.1975 0.00068965217 0.5 0.056572344
1 33 98 23 1 424.0 418.51 0.032675505 0.5 0.056572344
1 34 99 23 2 424.0 384.02 0.032675505 0.5 0.056572344
1 35 98 23 3 362.0 361.93 0.032675505 0.5 0.056572344
1 36 98 23 4 300.0 351.85 0.032675505 0.5 0.056572344
1 37 98 23 5 300.0 344.43 0.032675505 0.5 0.056572344
1 38 98 23 6 362.0 337.55 0.032675505 0.5 0.056572344
1 39 97 23 7 424.0 326.9 0.032675505 0.5 0.056572344
1 40 96 23 8 424.0 319.83 0.032675505 0.5 0.056572344
1 40 74 24 1 300.0 343.3 0.0148933595 0.5 0.056572344
1 39 74 24 2 300.0 334.88 0.0148933595 0.5 0.056572344
1 38 74 24 3 362.0 328.89 0.0148933595 0.5 0.056572344
1 37 75 24 4 424.0 323.18 0.0148933595 0.5 0.056572344
1 36 76 24 5 362.0 310.98 0.0148933595 0.5 0.056572344
1 36 77 24 6 362.0 303.13 0.0148933595 0.5 0.056572344
1 35 78 24 7 424.0 296.72 0.0148933595 0.5 0.056572344
1 34 79 24 8 362.0 293.31 0.0148933595 0.5 0.056572344
1 34 80 24 9 300.0 291.99 0.0148933595 0.5 0.056572344
1 34 81 24 10 362.0 287.94 0.0148933595 0.5 0.056572344
1 35 82 24 11 362.0 284.21 0.0148933595 0.5 0.056572344
1 35 83 24 12 300.0 280.45 0.0148933595 0.5 0.056572344
1 35 84 25 1 512.0 277.8 0.0021846974 0.5 0.056572344
1 36 85 25 2 362.0 276.41 0.0021846974 0.5 0.056572344
1 37 85 25 3 300.0 274.55 0.0021846974 0.5 0.056572344
1 38 85 25 4 362.0 273.25 0.0021846974 0.5 0.056572344
1 39 84 25 5 362.0 272.83 0.0021846974 0.5 0.056572344
1 40 84 25 6 362.0 272.8 0.0021846974 0.5 0.056572344
1 41 85 25 7 424.0 272.04 0.0021846974 0.5 0.056572344
1 42 86 25 8 362.0 271.12 0.0021846974 0.5 0.056572344
1 43 86 25 9 300.0 270.49 0.0021846974 0.5 0.056572344
1 38 27 26 1 574.0 355.58 0.021721588 0.5 0.002209795
1 39 28 26 2 424.0 351.91 0.021721588 0.5 0.002209795
1 40 29 26 3 362.0 349.5 0.021721588 0.5 0.002209795
1 40 30 26 4 300.0 346.98 0.021721588 0.5 0.002209795
1 40 31 26 5 362.0 345.53 0.021721588 0.5 0.002209795
1 41 32 26 6 362.0 333.41 0.021721588 0.5 0.002209795
1 41 33 26 7 362.0 322.93 0.021721588 0.5 0.002209795
1 42 34 26 8 424.0 306.04 0.021721588 0.5 0.002209795
1 43 35 26 9 362.0 290.52 0.021721588 0.5 0.002209795
1 43 36 26 10 362.0 278.67 0.021721588 0.5 0.002209795
1 44 37 26 11 424.0 263.81 0.021721588 0.5 0.002209795
1 45 38 26 12 362.0 249.15 0.021721588 0.5 0.002209795
1 45 39 26 13 300.0 243.21 0.021721588 0.5 0.002209795
1 46 39 26 14 300.0 240.89 0.021721588 0.5 0.002209795
1 38 103 27 1 300.0 489.15 0.06306277 0.5 0.056572344
1 38 102 27 2 300.0 471.72 0.06306277 0.5 0.056572344
1 38 101 27 3 362.0 442.89 0.06306277 0.5 0.056572344
1 39 100 27 4 362.0 385.54 0.06306277 0.5 0.056572344
1 39 99 27 5 300.0 355.55 0.06306277 0.5 0.056572344
1 39 98 27 6 362.0 333.41 0.06306277 0.5 0.056572344
1 40 97 27 7 424.0 321.91 0.06306277 0.5 0.056572344
1 41 96 27 8 362.0 314.34 0.06306277 0.5 0.056572344
1 46 9 28 1 300.0 484.18 0.021493334 0.5 0.002209795
1 45 9 28 2 300.0 479.29 0.021493334 0.5 0.002209795
1 44 9 28 3 300.0 475.18 0.021493334 0.5 0.002209795
1 43 9 28 4 300.0 474.12 0.021493334 0.5 0.002209795
1 42 9 28 5 362.0 470.84 0.021493334 0.5 0.002209795
1 41 10 28 6 424.0 461.78 0.021493334 0.5 0.002209795
1 40 11 28 7 362.0 457.94 0.021493334 0.5 0.002209795
1 40 12 28 8 300.0 456.16 0.021493334 0.5 0.002209795
1 40 13 28 9 362.0 453.1 0.021493334 0.5 0.002209795
1 41 14 28 10 362.0 448.0 0.021493334 0.5 0.002209795
1 41 15 28 11 300.0 444.63 0.021493334 0.5 0.002209795
1 41 16 28 12 362.0 440.66 0.021493334 0.5 0.002209795
1 40 17 28 13 362.0 421.81 0.021493334 0.5 0.002209795
1 40 18 28 14 300.0 411.11 0.021493334 0.5 0.002209795
1 40 19 28 15 362.0 397.64 0.021493334 0.5 0.002209795
1 41 20 28 16 424.0 380.94 0.021493334 0.5 0.002209795
1 42 21 28 17 362.0 362.36 0.021493334 0.5 0.002209795
1 43 21 28 18 362.0 353.19 0.021493334 0.5 0.002209795
1 44 22 28 19 362.0 337.89 0.021493334 0.5 0.002209795
1 44 23 28 20 300.0 334.06 0.021493334 0.5 0.002209795
1 44 24 28 21 362.0 327.47 0.021493334 0.5 0.002209795
1 45 25 28 22 424.0 319.67 0.021493334 0.5 0.002209795
1 41 95 29 1 512.0 309.07 0.010913519 0.5 0.056572344
1 41 94 29 2 300.0 304.42 0.010913519 0.5 0.056572344
1 41 93 29 3 362.0 299.3 0.010913519 0.5 0.056572344
1 42 92 29 4 424.0 293.26 0.010913519 0.5 0.056572344
1 43 91 29 5 424.0 287.53 0.010913519 0.5 0.056572344
1 44 90 29 6 362.0 285.34 0.010913519 0.5 0.056572344
1 44 89 29 7 300.0 279.86 0.010913519 0.5 0.056572344
1 44 88 29 8 300.0 276.12 0.010913519 0.5 0.056572344
1 44 87 29 9 300.0 273.23 0.010913519 0.5 0.056572344
1 43 42 30 1 424.0 292.34 0.021810926 0.5 0.002209795
1 44 43 30 2 424.0 281.23 0.021810926 0.5 0.002209795
1 45 44 30 3 424.0 262.83 0.021810926 0.5 0.002209795
1 46 45 30 4 362.0 249.44 0.021810926 0.5 0.002209795
1 47 45 30 5 362.0 240.47 0.021810926 0.5 0.002209795
1 48 46 30 6 362.0 234.44 0.021810926 0.5 0.002209795
1 49 46 30 7 300.0 230.02 0.021810926 0.5 0.002209795
1 50 46 30 8 300.0 226.65 0.021810926 0.5 0.002209795
1 51 46 30 9 300.0 221.28 0.021810926 0.5 0.002209795
1 44 86 31 1 512.0 268.29532 0.0012825476 0.5 0.056572344
1 45 85 31 2 362.0 266.2553 0.0012825476 0.5 0.056572344
1 46 85 31 3 300.0 266.1953 0.0012825476 0.5 0.056572344
1 47 85 31 4 300.0 266.1853 0.0012825476 0.5 0.056572344
1 48 85 31 5 300.0 266.10532 0.0012825476 0.5 0.056572344
1 49 85 31 6 300.0 265.6353 0.0012825476 0.5 0.056572344
1 51 19 32 1 424.0 450.45 0.043485466 0.5 0.002209795
1 50 20 32 2 424.0 441.07 0.043485466 0.5 0.002209795
1 49 21 32 3 362.0 429.68 0.043485466 0.5 0.002209795
1 49 22 32 4 300.0 422.82 0.043485466 0.5 0.002209795
1 49 23 32 5 362.0 415.12 0.043485466 0.5 0.002209795
1 48 24 32 6 424.0 405.05 0.043485466 0.5 0.002209795
1 47 25 32 7 362.0 350.37 0.043485466 0.5 0.002209795
1 46 25 32 8 300.0 321.82 0.043485466 0.5 0.002209795
1 46 26 33 1 512.0 314.5 0.015014988 0.5 0.002209795
1 46 27 33 2 300.0 309.39 0.015014988 0.5 0.002209795
1 46 28 33 3 300.0 303.95 0.015014988 0.5 0.002209795
1 46 29 33 4 300.0 303.52 0.015014988 0.5 0.002209795
1 46 30 33 5 362.0 302.56 0.015014988 0.5 0.002209795
1 47 31 33 6 424.0 301.33 0.015014988 0.5 0.002209795
1 48 32 33 7 362.0 298.95 0.015014988 0.5 0.002209795
1 48 33 33 8 300.0 290.72 0.015014988 0.5 0.002209795
1 48 34 33 9 362.0 285.2 0.015014988 0.5 0.002209795
1 47 35 33 10 362.0 279.18 0.015014988 0.5 0.002209795
1 47 36 33 11 300.0 277.48 0.015014988 0.5 0.002209795
1 47 37 33 12 362.0 269.67 0.015014988 0.5 0.002209795
1 46 38 33 13 424.0 244.38 0.015014988 0.5 0.002209795
1 47 99 34 1 424.0 371.39 0.021549799 0.5 0.056572344
1 46 98 34 2 424.0 344.35 0.021549799 0.5 0.056572344
1 47 97 34 3 362.0 326.55 0.021549799 0.5 0.056572344
1 47 96 34 4 300.0 317.8 0.021549799 0.5 0.056572344
1 47 95 34 5 362.0 306.18 0.021549799 0.5 0.056572344
1 48 94 34 6 362.0 294.82 0.021549799 0.5 0.056572344
1 48 93 34 7 300.0 288.54 0.021549799 0.5 0.056572344
1 48 92 34 8 300.0 284.29 0.021549799 0.5 0.056572344
1 48 91 34 9 362.0 279.46 0.021549799 0.5 0.056572344
1 49 90 34 10 362.0 277.45 0.021549799 0.5 0.056572344
1 49 89 34 11 300.0 274.29 0.021549799 0.5 0.056572344
1 49 88 34 12 300.0 273.22 0.021549799 0.5 0.056572344
1 49 87 34 13 300.0 269.22 0.021549799 0.5 0.056572344
1 49 86 34 14 362.0 267.52 0.021549799 0.5 0.056572344
1 47 39 35 1 574.0 237.32 0.0041858177 0.5 0.002209795
1 48 40 35 2 362.0 231.6 0.0041858177 0.5 0.002209795
1 48 41 35 3 300.0 230.83 0.0041858177 0.5 0.002209795
1 49 41 35 4 362.0 230.77 0.0041858177 0.5 0.002209795
1 50 42 35 5 362.0 227.8 0.0041858177 0.5 0.002209795
1 50 43 35 6 300.0 225.78 0.0041858177 0.5 0.002209795
1 50 44 35 7 362.0 225.04 0.0041858177 0.5 0.002209795
1 51 45 35 8 424.0 224.57 0.0041858177 0.5 0.002209795
1 49 76 36 1 424.0 335.11 0.01993861 0.5 0.056572344
1 48 77 36 2 362.0 314.38 0.01993861 0.5 0.056572344
1 48 78 36 3 300.0 305.01 0.01993861 0.5 0.056572344
1 48 79 36 4 362.0 300.79 0.01993861 0.5 0.056572344
1 47 80 36 5 362.0 290.01 0.01993861 0.5 0.056572344
1 47 81 36 6 300.0 283.35 0.01993861 0.5 0.056572344
1 47 82 36 7 362.0 280.53 0.01993861 0.5 0.056572344
1 48 83 36 8 424.0 274.92 0.01993861 0.5 0.056572344
1 49 84 36 9 362.0 270.15 0.01993861 0.5 0.056572344
1 49 60 37 1 300.0 247.96 0.015151936 0.5 0.002209795
1 49 59 37 2 362.0 243.81 0.015151936 0.5 0.002209795
1 50 58 37 3 362.0 236.53 0.015151936 0.5 0.002209795
1 50 57 37 4 362.0 230.49 0.015151936 0.5 0.002209795
1 51 56 37 5 424.0 225.13 0.015151936 0.5 0.002209795
1 52 55 37 6 362.0 215.05 0.015151936 0.5 0.002209795
1 50 84 38 1 512.0 262.4623 1e-04 0.5 0.056572344
1 50 85 39 1 512.0 263.1632 1e-04 0.5 0.056572344
1 51 31 40 1 300.0 328.0 0.022531115 0.5 0.002209795
1 51 32 40 2 300.0 320.9 0.022531115 0.5 0.002209795
1 51 33 40 3 300.0 309.31 0.022531115 0.5 0.002209795
1 51 34 40 4 300.0 299.48 0.022531115 0.5 0.002209795
1 51 35 40 5 362.0 291.45 0.022531115 0.5 0.002209795
1 52 36 40 6 424.0 281.79 0.022531115 0.5 0.002209795
1 53 37 40 7 424.0 273.7 0.022531115 0.5 0.002209795
1 51 83 41 1 512.0 264.3841 0.00486748 0.5 0.056572344
1 52 83 41 2 362.0 264.3841 0.00486748 0.5 0.056572344
1 53 82 41 3 424.0 259.12408 0.00486748 0.5 0.056572344
1 54 81 41 4 362.0 256.30408 0.00486748 0.5 0.056572344
1 54 95 42 1 512.0 291.5 0.006181468 0.5 0.056572344
1 53 94 42 2 362.0 288.44 0.006181468 0.5 0.056572344
1 53 93 42 3 362.0 285.76 0.006181468 0.5 0.056572344
1 52 92 42 4 362.0 282.64 0.006181468 0.5 0.056572344
1 52 91 42 5 362.0 280.22 0.006181468 0.5 0.056572344
1 51 90 42 6 362.0 276.49 0.006181468 0.5 0.056572344
1 51 89 42 7 300.0 274.82 0.006181468 0.5 0.056572344
1 51 88 42 8 300.0 273.08 0.006181468 0.5 0.056572344
1 51 87 42 9 300.0 269.48 0.006181468 0.5 0.056572344
1 51 86 42 10 300.0 267.83 0.006181468 0.5 0.056572344
1 51 85 42 11 300.0 266.57 0.006181468 0.5 0.056572344
1 51 84 42 12 300.0 266.02 0.006181468 0.5 0.056572344
1 52 46 43 1 574.0 219.2 0.0029693837 0.5 0.002209795
1 53 47 43 2 424.0 217.33 0.0029693837 0.5 0.002209795
1 54 48 43 3 362.0 215.13 0.0029693837 0.5 0.002209795
1 54 49 43 4 300.0 213.61 0.0029693837 0.5 0.002209795
1 54 50 43 5 300.0 213.38 0.0029693837 0.5 0.002209795
1 52 104 44 1 424.0 392.68 0.03170764 0.5 0.056572344
1 53 103 44 2 362.0 372.74 0.03170764 0.5 0.056572344
1 53 102 44 3 300.0 358.87 0.03170764 0.5 0.056572344
1 53 101 44 4 300.0 346.94 0.03170764 0.5 0.056572344
1 53 100 44 5 300.0 336.22 0.03170764 0.5 0.056572344
1 53 99 44 6 300.0 325.45 0.03170764 0.5 0.056572344
1 53 98 44 7 300.0 316.62 0.03170764 0.5 0.056572344
1 53 97 44 8 362.0 305.7 0.03170764 0.5 0.056572344
1 54 96 44 9 362.0 297.24 0.03170764 0.5 0.056572344
1 53 55 45 1 512.0 211.87 0.0033049316 0.5 0.002209795
1 54 55 45 2 300.0 210.13 0.0033049316 0.5 0.002209795
1 55 55 45 3 362.0 207.99 0.0033049316 0.5 0.002209795
1 61 23 46 1 300.0 477.19 0.038250748 0.5 0.002209795
1 61 24 46 2 362.0 452.31 0.038250748 0.5 0.002209795
1 60 25 46 3 424.0 420.78 0.038250748 0.5 0.002209795
1 59 26 46 4 362.0 375.01 0.038250748 0.5 0.002209795
1 59 27 46 5 362.0 361.74 0.038250748 0.5 0.002209795
1 58 28 46 6 362.0 343.84 0.038250748 0.5 0.002209795
1 58 29 46 7 362.0 340.33 0.038250748 0.5 0.002209795
1 57 30 46 8 424.0 326.34 0.038250748 0.5 0.002209795
1 56 31 46 9 362.0 321.05 0.038250748 0.5 0.002209795
1 56 32 46 10 300.0 312.0 0.038250748 0.5 0.002209795
1 56 33 46 11 300.0 302.77 0.038250748 0.5 0.002209795
1 56 34 46 12 300.0 296.26 0.038250748 0.5 0.002209795
1 56 35 46 13 362.0 288.88 0.038250748 0.5 0.002209795
1 55 36 46 14 424.0 279.2 0.038250748 0.5 0.002209795
1 54 37 46 15 362.0 271.86 0.038250748 0.5 0.002209795
1 54 38 47 1 512.0 264.67 0.012158224 0.5 0.002209795
1 54 39 47 2 300.0 253.57 0.012158224 0.5 0.002209795
1 54 40 47 3 300.0 243.88 0.012158224 0.5 0.002209795
1 54 41 47 4 300.0 234.79 0.012158224 0.5 0.002209795
1 54 42 47 5 362.0 230.71 0.012158224 0.5 0.002209795
1 55 43 47 6 362.0 229.21 0.012158224 0.5 0.002209795
1 55 44 47 7 300.0 225.96 0.012158224 0.5 0.002209795
1 55 45 47 8 300.0 220.28 0.012158224 0.5 0.002209795
1 55 46 47 9 362.0 218.05 0.012158224 0.5 0.002209795
1 54 47 47 10 424.0 216.12 0.012158224 0.5 0.002209795
1 55 48 47 11 362.0 214.47 0.012158224 0.5 0.002209795
1 55 49 47 12 300.0 213.8 0.012158224 0.5 0.002209795
1 57 65 48 1 300.0 256.65 0.013074617 0.5 0.002209795
1 56 65 48 2 362.0 251.82 0.013074617 0.5 0.002209795
1 55 64 48 3 362.0 246.63 0.013074617 0.5 0.002209795
1 55 63 48 4 300.0 241.88 0.013074617 0.5 0.002209795
1 55 62 48 5 362.0 238.56 0.013074617 0.5 0.002209795
1 54 61 48 6 424.0 233.7 0.013074617 0.5 0.002209795
1 55 60 48 7 362.0 226.26 0.013074617 0.5 0.002209795
1 55 59 48 8 300.0 219.82 0.013074617 0.5 0.002209795
1 55 58 48 9 300.0 216.37 0.013074617 0.5 0.002209795
1 55 57 48 10 300.0 212.42 0.013074617 0.5 0.002209795
1 55 56 48 11 300.0 208.64 0.013074617 0.5 0.002209795
1 55 87 49 1 424.0 315.82 0.027060553 0.5 0.056572344
1 54 86 49 2 362.0 293.89 0.027060553 0.5 0.056572344
1 54 85 49 3 300.0 281.8 0.027060553 0.5 0.056572344
1 54 84 49 4 300.0 272.4 0.027060553 0.5 0.056572344
1 54 83 49 5 300.0 265.16 0.027060553 0.5 0.056572344
1 54 82 49 6 362.0 260.4 0.027060553 0.5 0.056572344
1 55 50 50 1 512.0 213.33 0.00267257 0.5 0.002209795
1 56 51 50 2 362.0 213.31 0.00267257 0.5 0.002209795
1 56 52 50 3 300.0 213.3 0.00267257 0.5 0.002209795
1 56 53 50 4 300.0 210.38 0.00267257 0.5 0.002209795
1 56 54 50 5 362.0 207.37 0.00267257 0.5 0.002209795
1 57 55 50 6 424.0 207.29 0.00267257 0.5 0.002209795
1 55 81 51 1 512.0 254.3751 0.0010906255 0.5 0.056572344
1 56 81 51 2 362.0 252.5551 0.0010906255 0.5 0.056572344
1 57 80 51 3 362.0 252.4651 0.0010906255 0.5 0.056572344
1 58 80 51 4 300.0 252.3151 0.0010906255 0.5 0.056572344
1 58 79 51 5 362.0 252.3051 0.0010906255 0.5 0.056572344
1 59 100 52 1 450.0 332.02 0.0145502845 0.5 0.056572344
1 59 99 52 2 362.0 329.0 0.0145502845 0.5 0.056572344
1 58 98 52 3 424.0 319.01 0.0145502845 0.5 0.056572344
1 57 97 52 4 424.0 312.28 0.0145502845 0.5 0.056572344
1 56 96 52 5 424.0 304.76 0.0145502845 0.5 0.056572344
1 55 95 52 6 362.0 296.43 0.0145502845 0.5 0.056572344
1 56 56 53 1 512.0 207.3 1e-04 0.5 0.002209795
1 57 56 53 2 300.0 207.29 1e-04 0.5 0.002209795
1 58 107 54 1 424.0 444.31 0.04249539 0.5 0.056572344
1 57 106 54 2 362.0 411.95 0.04249539 0.5 0.056572344
1 57 105 54 3 300.0 397.09 0.04249539 0.5 0.056572344
1 57 104 54 4 300.0 381.0 0.04249539 0.5 0.056572344
1 57 103 54 5 362.0 366.69 0.04249539 0.5 0.056572344
1 58 102 54 6 424.0 352.01 0.04249539 0.5 0.056572344
1 58 56 55 1 512.0 207.28 0.0031744593 0.5 0.002209795
1 59 56 55 2 362.0 207.27 0.0031744593 0.5 0.002209795
1 60 57 55 3 362.0 206.38 0.0031744593 0.5 0.002209795
1 61 57 55 4 300.0 205.34 0.0031744593 0.5 0.002209795
1 62 57 55 5 300.0 203.99 0.0031744593 0.5 2.209795
1 63 57 55 6 362.0 202.62 0.0031744593 0.5 2.209795
1 64 56 55 7 362.0 200.73 0.0031744593 0.5 2.209795
1 65 56 55 8 300.0 199.8 0.0031744593 0.5 0.002209795
1 66 56 55 9 300.0 198.37 0.0031744593 0.5 0.002209795
1 67 56 55 10 300.0 196.67 0.0031744593 0.5 0.002209795
1 68 56 55 11 300.0 195.35 0.0031744593 0.5 0.002209795
1 69 56 55 12 300.0 194.17 0.0031744593 0.5 0.002209795
1 70 56 55 13 300.0 193.42 0.0031744593 0.5 0.002209795
1 71 56 55 14 300.0 192.5 0.0031744593 0.5 0.002209795
1 72 56 55 15 300.0 191.5 0.0031744593 0.5 0.002209795
1 73 56 55 16 300.0 190.68 0.0031744593 0.5 0.002209795
1 74 56 55 17 300.0 189.63 0.0031744593 0.5 0.002209795
1 59 78 56 1 512.0 253.31 0.004856081 0.5 0.056572344
1 59 77 56 2 362.0 250.92 0.004856081 0.5 0.056572344
1 60 76 56 3 362.0 240.36 0.004856081 0.5 0.01550385
1 60 75 56 4 300.0 236.52 0.004856081 0.5 0.01550385
1 60 74 56 5 300.0 234.08 0.004856081 0.5 0.01550385
1 60 73 56 6 362.0 232.82 0.004856081 0.5 0.01550385
1 61 72 56 7 424.0 232.8 0.004856081 0.5 0.01550385
1 62 71 56 8 424.0 232.78 0.004856081 0.5 0.01550385
1 63 70 56 9 362.0 232.76 0.004856081 0.5 0.01550385
1 63 69 56 10 300.0 232.75 0.004856081 0.5 0.01550385
1 63 68 56 11 300.0 232.74 0.004856081 0.5 0.01550385
1 63 67 56 12 300.0 232.39 0.004856081 0.5 0.01550385
1 71 93 57 1 512.0 306.43 0.0080784485 0.5 0.056572344
1 71 92 57 2 362.0 303.42 0.0080784485 0.5 0.056572344
1 70 91 57 3 424.0 299.45 0.0080784485 0.5 0.056572344
1 69 90 57 4 362.0 295.53 0.0080784485 0.5 0.056572344
1 68 90 57 5 362.0 292.52 0.0080784485 0.5 0.056572344
1 67 89 57 6 362.0 289.43 0.0080784485 0.5 0.056572344
1 66 89 57 7 362.0 287.31 0.0080784485 0.5 0.056572344
1 65 88 57 8 362.0 284.02 0.0080784485 0.5 0.056572344
1 65 87 57 9 300.0 281.2 0.0080784485 0.5 0.056572344
1 65 86 57 10 362.0 278.92 0.0080784485 0.5 0.056572344
1 64 85 57 11 362.0 275.65 0.0080784485 0.5 0.056572344
1 64 84 57 12 362.0 273.06 0.0080784485 0.5 0.056572344
1 63 83 57 13 424.0 268.29 0.0080784485 0.5 0.056572344
1 62 82 57 14 424.0 264.13 0.0080784485 0.5 0.056572344
1 61 81 57 15 424.0 260.41 0.0080784485 0.5 0.056572344
1 60 80 57 16 424.0 256.84 0.0080784485 0.5 0.056572344
1 59 79 57 17 362.0 253.5 0.0080784485 0.5 0.056572344
1 59 101 58 1 512.0 340.45 1e-04 0.5 0.056572344
1 61 108 59 1 300.0 486.78 0.057959963 0.5 0.056572344
1 61 107 59 2 300.0 460.51 0.057959963 0.5 0.056572344
1 61 106 59 3 300.0 444.95 0.057959963 0.5 0.056572344
1 61 105 59 4 300.0 434.44 0.057959963 0.5 0.056572344
1 61 104 59 5 362.0 413.45 0.057959963 0.5 0.056572344
1 60 103 59 6 424.0 390.7 0.057959963 0.5 0.056572344
1 59 102 59 7 362.0 350.69 0.057959963 0.5 0.056572344
1 62 104 60 1 300.0 418.72 0.042191077 0.5 0.056572344
1 62 103 60 2 300.0 405.95 0.042191077 0.5 0.056572344
1 62 102 60 3 362.0 394.81 0.042191077 0.5 0.056572344
1 61 101 60 4 424.0 366.73 0.042191077 0.5 0.056572344
1 60 100 60 5 362.0 344.97 0.042191077 0.5 0.056572344
1 66 27 61 1 424.0 439.34 0.022457903 0.5 0.002209795
1 65 28 61 2 362.0 419.44 0.022457903 0.5 0.002209795
1 65 29 61 3 300.0 402.23 0.022457903 0.5 0.002209795
1 65 30 61 4 362.0 392.04 0.022457903 0.5 0.002209795
1 64 31 61 5 362.0 377.88 0.022457903 0.5 0.002209795
1 64 32 61 6 362.0 372.66 0.022457903 0.5 0.002209795
1 63 33 61 7 362.0 361.92 0.022457903 0.5 0.002209795
1 63 34 61 8 362.0 351.48 0.022457903 0.5 0.002209795
1 64 35 61 9 362.0 336.59 0.022457903 0.5 0.002209795
1 64 36 61 10 362.0 328.56 0.022457903 0.5 0.002209795
1 65 37 61 11 424.0 320.7 0.022457903 0.5 0.002209795
1 66 38 61 12 424.0 307.14 0.022457903 0.5 0.002209795
1 65 39 61 13 362.0 296.28 0.022457903 0.5 0.002209795
1 65 40 61 14 300.0 276.94 0.022457903 0.5 0.002209795
1 65 41 61 15 300.0 256.23 0.022457903 0.5 0.002209795
1 65 42 61 16 362.0 241.98 0.022457903 0.5 0.002209795
1 66 43 61 17 362.0 236.83 0.022457903 0.5 0.002209795
1 66 44 61 18 300.0 229.98 0.022457903 0.5 0.002209795
1 66 45 61 19 362.0 227.29 0.022457903 0.5 0.002209795
1 67 46 61 20 424.0 223.46 0.022457903 0.5 0.002209795
1 68 47 61 21 424.0 219.93 0.022457903 0.5 0.002209795
1 69 48 61 22 424.0 215.87 0.022457903 0.5 0.002209795
1 70 49 61 23 362.0 211.73 0.022457903 0.5 0.002209795
1 71 49 61 24 362.0 208.88 0.022457903 0.5 0.002209795
1 72 50 61 25 424.0 204.29 0.022457903 0.5 0.002209795
1 73 51 61 26 424.0 201.46 0.022457903 0.5 0.002209795
1 74 52 61 27 362.0 198.62 0.022457903 0.5 0.002209795
1 74 53 61 28 362.0 195.66 0.022457903 0.5 0.002209795
1 75 54 61 29 362.0 193.39 0.022457903 0.5 0.002209795
1 75 55 61 30 300.0 191.27 0.022457903 0.5 0.002209795
1 68 97 62 1 424.0 474.14 0.09543452 0.5 0.056572344
1 69 96 62 2 424.0 408.61 0.09543452 0.5 0.056572344
1 70 95 62 3 424.0 344.33 0.09543452 0.5 0.056572344
1 71 94 62 4 362.0 318.2 0.09543452 0.5 0.056572344
1 73 33 63 1 300.0 391.21 0.02656689 0.5 5.0
1 73 34 63 2 300.0 378.76 0.02656689 0.5 5.0
1 73 35 63 3 300.0 360.85 0.02656689 0.5 5.0
1 73 36 63 4 300.0 345.19 0.02656689 0.5 5.0
1 73 37 63 5 362.0 327.22 0.02656689 0.5 5.0
1 72 38 63 6 424.0 306.61 0.02656689 0.5 5.0
1 71 39 63 7 362.0 294.44 0.02656689 0.5 5.0
1 71 40 63 8 362.0 289.72 0.02656689 0.5 5.0
1 72 41 63 9 362.0 276.94 0.02656689 0.5 5.0
1 72 42 63 10 362.0 267.28 0.02656689 0.5 5.0
1 73 43 63 11 424.0 258.35 0.02656689 0.5 5.0
1 72 44 63 12 362.0 241.17 0.02656689 0.5 5.0
1 72 45 63 13 300.0 232.56 0.02656689 0.5 5.0
1 72 46 63 14 362.0 227.17 0.02656689 0.5 5.0
1 73 47 63 15 424.0 220.66 0.02656689 0.5 5.0
1 74 48 63 16 424.0 215.83 0.02656689 0.5 5.0