# HOB package for  MODFLOW-NWT, generated by Flopy.
       169         0         0      1014     -9999
         1
HO_0                    3        348        130          1                  0.0    -0.3599     0.1744    60.7131   # DATASET 3 - Observation 1
HO_1                    3        367        123          1                  0.0     0.4825     0.0641   321.5152   # DATASET 3 - Observation 2
HO_2                    1        374        148          1                  0.0     0.2282    -0.2041    92.1475   # DATASET 3 - Observation 3
HO_3                    1        359        144          1                  0.0    -0.1540     0.1118    43.8523   # DATASET 3 - Observation 4
HO_4                    1        352        100          1                  0.0     0.3474    -0.3930     1.1755   # DATASET 3 - Observation 5
HO_5                    3        345        117          1                  0.0    -0.4132     0.4002     2.3805   # DATASET 3 - Observation 6
HO_6                    2        375        150          1                  0.0     0.1560     0.2583    60.0547   # DATASET 3 - Observation 7
HO_7                    3        388        153          1                  0.0     0.3874    -0.1487   190.3093   # DATASET 3 - Observation 8
HO_8                    1        373        153          1                  0.0     0.2233    -0.3737    42.3306   # DATASET 3 - Observation 9
HO_9                    2        369        160          1                  0.0     0.0319     0.3324    52.0217   # DATASET 3 - Observation 10
HO_10                   2        354        153          1                  0.0     0.4698     0.4727    51.3138   # DATASET 3 - Observation 11
HO_11                   3        294        148          1                  0.0    -0.4371     0.1376    26.0044   # DATASET 3 - Observation 12
HO_12                   3        330        148          1                  0.0    -0.4893     0.0111    15.5082   # DATASET 3 - Observation 13
HO_13                   3        305        126          1                  0.0     0.0966    -0.4624   380.5398   # DATASET 3 - Observation 14
HO_14                   2        335         95          1                  0.0    -0.4938    -0.0975    14.0574   # DATASET 3 - Observation 15
HO_15                   2        281        147          1                  0.0    -0.0635    -0.2245    60.5152   # DATASET 3 - Observation 16
HO_16                   3        338        145          1                  0.0    -0.3118    -0.4852     6.1166   # DATASET 3 - Observation 17
HO_17                   2        290        181          1                  0.0    -0.4858    -0.4281    38.3134   # DATASET 3 - Observation 18
HO_18                   1        292        178          1                  0.0     0.2332    -0.1701    38.8010   # DATASET 3 - Observation 19
HO_19                   3        294        158          1                  0.0     0.4200    -0.0683    27.7947   # DATASET 3 - Observation 20
HO_20                   3        296        157          1                  0.0     0.0147    -0.4443    18.7147   # DATASET 3 - Observation 21
HO_21                   3        328        156          1                  0.0     0.2422    -0.0659     5.3655   # DATASET 3 - Observation 22
HO_22                   3        324        156          1                  0.0     0.3207     0.4802    12.7019   # DATASET 3 - Observation 23
HO_23                   1        323        156          1                  0.0    -0.2695     0.3325    12.9338   # DATASET 3 - Observation 24
HO_24                   2        323        156          1                  0.0    -0.2695     0.3325    12.0560   # DATASET 3 - Observation 25
HO_25                   3        314        157          1                  0.0    -0.2983    -0.3786    16.8985   # DATASET 3 - Observation 26
HO_26                   3        311        156          1                  0.0     0.0777    -0.0293    17.4908   # DATASET 3 - Observation 27
HO_27                   3        311        158          1                  0.0     0.0248    -0.1082    17.8964   # DATASET 3 - Observation 28
HO_28                   3        302        153          1                  0.0     0.0963    -0.0087    20.4467   # DATASET 3 - Observation 29
HO_29                   3        283        149          1                  0.0     0.4110     0.4626    38.5256   # DATASET 3 - Observation 30
HO_30                   1        299        188          1                  0.0     0.2488     0.2763    12.8260   # DATASET 3 - Observation 31
HO_31                   3        295        182          1                  0.0     0.2712    -0.2579    35.3157   # DATASET 3 - Observation 32
HO_32                   2        286        177          1                  0.0     0.1835    -0.0095    44.5681   # DATASET 3 - Observation 33
HO_33                   2        285        182          1                  0.0    -0.2753    -0.3933    38.0232   # DATASET 3 - Observation 34
HO_34                   3        335        149          1                  0.0    -0.2381    -0.2058     4.7415   # DATASET 3 - Observation 35
HO_35                   2        331        153          1                  0.0     0.2420     0.3523    12.4693   # DATASET 3 - Observation 36
HO_36                   2        292        207          1                  0.0     0.4676     0.0677   131.8418   # DATASET 3 - Observation 37
HO_37                   1        285        205          1                  0.0    -0.4309     0.3364   125.1794   # DATASET 3 - Observation 38
HO_38                   3        254        145          1                  0.0     0.0099     0.2711    64.1028   # DATASET 3 - Observation 39
HO_39                   3        258        143          1                  0.0     0.2733     0.1496    58.2778   # DATASET 3 - Observation 40
HO_40                   3        258        136          1                  0.0     0.2492    -0.1602    95.8992   # DATASET 3 - Observation 41
HO_41                   3        269        131          1                  0.0    -0.0800    -0.1283    44.5270   # DATASET 3 - Observation 42
HO_42                   3        275        130          1                  0.0    -0.3901     0.4958    57.9973   # DATASET 3 - Observation 43
HO_43                   3        260        126          1                  0.0     0.3948    -0.4472    52.4485   # DATASET 3 - Observation 44
HO_44                   3        222        116          1                  0.0     0.0736    -0.1097    86.3454   # DATASET 3 - Observation 45
HO_45                   3        230        111          1                  0.0    -0.3239    -0.0151   101.7933   # DATASET 3 - Observation 46
HO_46                   3        224         93          1                  0.0    -0.2650    -0.3449   337.2764   # DATASET 3 - Observation 47
HO_47                   1        260        124          1                  0.0     0.0412     0.4641    52.8127   # DATASET 3 - Observation 48
HO_48                   1        259        126          1                  0.0     0.3997    -0.2548    53.8468   # DATASET 3 - Observation 49
HO_49                   3        232        119          1                  0.0     0.0288    -0.0979    79.1760   # DATASET 3 - Observation 50
HO_50                   3        225        116          1                  0.0    -0.3706     0.1580    83.1738   # DATASET 3 - Observation 51
HO_51                   3        228        115          1                  0.0     0.0353     0.3114    85.9434   # DATASET 3 - Observation 52
HO_52                   1        257        148          1                  0.0     0.3563     0.3431    52.5554   # DATASET 3 - Observation 53
HO_53                   3        250        140          1                  0.0     0.3122     0.2223    70.5124   # DATASET 3 - Observation 54
HO_54                   1        270        157          1                  0.0     0.0410     0.3555    49.9134   # DATASET 3 - Observation 55
HO_55                   2        272        167          1                  0.0     0.4336    -0.3388    49.6345   # DATASET 3 - Observation 56
HO_56                   2        279        171          1                  0.0    -0.3869     0.4912    43.7002   # DATASET 3 - Observation 57
HO_57                   2        277        169          1                  0.0    -0.3798     0.3409    47.0383   # DATASET 3 - Observation 58
HO_58                   3        275        158          1                  0.0    -0.0875    -0.4868    48.7924   # DATASET 3 - Observation 59
HO_59                   2        271        154          1                  0.0    -0.1967    -0.2702    49.9470   # DATASET 3 - Observation 60
HO_60                   3        268        165          1                  0.0    -0.1370    -0.2866    60.3050   # DATASET 3 - Observation 61
HO_61                   3        266        158          1                  0.0    -0.4499     0.3164    58.0648   # DATASET 3 - Observation 62
HO_62                   3        196         85          1                  0.0    -0.4973     0.2422   342.9610   # DATASET 3 - Observation 63
HO_63                   3        162         85          1                  0.0    -0.1280    -0.3773   140.0861   # DATASET 3 - Observation 64
HO_64                   3        173         82          1                  0.0     0.2432    -0.0466   336.1030   # DATASET 3 - Observation 65
HO_65                   3        156         81          1                  0.0    -0.3216    -0.1560   147.7821   # DATASET 3 - Observation 66
HO_66                   2        164         80          1                  0.0    -0.2386     0.3402   149.2327   # DATASET 3 - Observation 67
HO_67                   1        162         85          1                  0.0    -0.4889     0.3386   144.2119   # DATASET 3 - Observation 68
HO_68                   1        162         85          1                  0.0    -0.4889     0.3386   143.3656   # DATASET 3 - Observation 69
HO_69                   3        212        147          1                  0.0    -0.2240    -0.0904   553.6600   # DATASET 3 - Observation 70
HO_70                   3        159        101          1                  0.0     0.0880     0.4520   238.9632   # DATASET 3 - Observation 71
HO_71                   3        155        100          1                  0.0     0.3886     0.4114   234.0575   # DATASET 3 - Observation 72
HO_72                   2        158        100          1                  0.0     0.4708     0.1691   219.5383   # DATASET 3 - Observation 73
HO_73                   3        158        100          1                  0.0     0.4707     0.0889   220.8305   # DATASET 3 - Observation 74
HO_74                   3        156        100          1                  0.0    -0.3034     0.0905   256.0741   # DATASET 3 - Observation 75
HO_75                   3        160        100          1                  0.0     0.0119     0.0078   229.4248   # DATASET 3 - Observation 76
HO_76                   3        160        100          1                  0.0     0.4228    -0.0727   230.2480   # DATASET 3 - Observation 77
HO_77                   3        161        100          1                  0.0    -0.4745    -0.1529   226.5201   # DATASET 3 - Observation 78
HO_78                   3        155        100          1                  0.0    -0.1255    -0.1496   258.1863   # DATASET 3 - Observation 79
HO_79                   3        158        100          1                  0.0     0.1622    -0.3921   220.4496   # DATASET 3 - Observation 80
HO_80                   3        158         99          1                  0.0    -0.0436     0.1268   217.5948   # DATASET 3 - Observation 81
HO_81                   3        157         99          1                  0.0     0.2371    -0.0332   205.7370   # DATASET 3 - Observation 82
HO_82                   3        159         98          1                  0.0    -0.2220     0.4846   199.0420   # DATASET 3 - Observation 83
HO_83                   3        158         98          1                  0.0     0.0584    -0.0763   204.3538   # DATASET 3 - Observation 84
HO_84                   3        155         98          1                  0.0     0.3869    -0.2349   219.5149   # DATASET 3 - Observation 85
HO_85                   3        157         97          1                  0.0    -0.1750     0.2829   237.5769   # DATASET 3 - Observation 86
HO_86                   3        157         97          1                  0.0    -0.1750     0.2027   232.4211   # DATASET 3 - Observation 87
HO_87                   3        157         97          1                  0.0    -0.2778     0.1226   238.8917   # DATASET 3 - Observation 88
HO_88                   3        158         97          1                  0.0    -0.1478    -0.1188   189.3600   # DATASET 3 - Observation 89
HO_89                   3        157         97          1                  0.0     0.4412    -0.1185   200.1998   # DATASET 3 - Observation 90
HO_90                   3        158         97          1                  0.0    -0.1480    -0.3594   199.7278   # DATASET 3 - Observation 91
HO_91                   3        158         97          1                  0.0    -0.4562    -0.3592   196.1876   # DATASET 3 - Observation 92
HO_92                   3        166         95          1                  0.0    -0.4433    -0.0495   184.2821   # DATASET 3 - Observation 93
HO_93                   3        162         93          1                  0.0     0.2676     0.4290   165.5506   # DATASET 3 - Observation 94
HO_94                   2        162         93          1                  0.0     0.1646     0.1082   119.1158   # DATASET 3 - Observation 95
HO_95                   2        158         89          1                  0.0     0.1864     0.4999   161.8251   # DATASET 3 - Observation 96
HO_96                   3        130         74          1                  0.0    -0.2244    -0.2523   155.5135   # DATASET 3 - Observation 97
HO_97                   1        124         71          1                  0.0     0.0168    -0.2068   162.7464   # DATASET 3 - Observation 98
HO_98                   3        106         69          1                  0.0     0.3227     0.4716   196.1540   # DATASET 3 - Observation 99
HO_99                   3        117         64          1                  0.0     0.4915    -0.3213   160.1815   # DATASET 3 - Observation 100
HO_100                  3        117         64          1                  0.0     0.4401    -0.3693   161.9006   # DATASET 3 - Observation 101
HO_101                  1         95         61          1                  0.0    -0.1835    -0.3183   176.0525   # DATASET 3 - Observation 102
HO_102                  2        113         68          1                  0.0     0.0619    -0.3726   169.0268   # DATASET 3 - Observation 103
HO_103                  2        113         68          1                  0.0    -0.4976    -0.3134   167.7711   # DATASET 3 - Observation 104
HO_104                  2        111         66          1                  0.0     0.0264    -0.1180   166.3035   # DATASET 3 - Observation 105
HO_105                  1        111         67          1                  0.0    -0.3417    -0.1634   169.6499   # DATASET 3 - Observation 106
HO_106                  1        106         62          1                  0.0    -0.1049    -0.1971   170.8724   # DATASET 3 - Observation 107
HO_107                  1        105         63          1                  0.0     0.0858    -0.4687   171.6207   # DATASET 3 - Observation 108
HO_108                  1        105         63          1                  0.0    -0.1344    -0.3208   170.5138   # DATASET 3 - Observation 109
HO_109                  2        103         60          1                  0.0    -0.0462    -0.4038   171.2336   # DATASET 3 - Observation 110
HO_110                  1        102         61          1                  0.0    -0.1721    -0.1309   171.6618   # DATASET 3 - Observation 111
HO_111                  1         99         58          1                  0.0     0.0509     0.0821   168.6001   # DATASET 3 - Observation 112
HO_112                  1        102         60          1                  0.0     0.2839    -0.4035   171.8840   # DATASET 3 - Observation 113
HO_113                  3        154        100          1                  0.0    -0.0503    -0.3896   248.5934   # DATASET 3 - Observation 114
HO_114                  3        154         99          1                  0.0     0.1550     0.2895   237.5507   # DATASET 3 - Observation 115
HO_115                  3        154         99          1                  0.0     0.0521     0.0490   245.3903   # DATASET 3 - Observation 116
HO_116                  3        155         99          1                  0.0    -0.4345    -0.3523   233.6597   # DATASET 3 - Observation 117
HO_117                  3        154         99          1                  0.0     0.3600    -0.4324   239.3838   # DATASET 3 - Observation 118
HO_118                  2        151         91          1                  0.0    -0.2417     0.3539   250.3956   # DATASET 3 - Observation 119
HO_119                  3        149         89          1                  0.0     0.2152     0.4311   237.7501   # DATASET 3 - Observation 120
HO_120                  2         60         65          1                  0.0    -0.3159    -0.0102   315.9039   # DATASET 3 - Observation 121
HO_121                  2         60         64          1                  0.0    -0.3171     0.3506   261.9817   # DATASET 3 - Observation 122
HO_122                  3         48         63          1                  0.0     0.1729     0.4944   266.2253   # DATASET 3 - Observation 123
HO_123                  3         59         63          1                  0.0     0.3716    -0.1669   273.7223   # DATASET 3 - Observation 124
HO_124                  3         51         59          1                  0.0     0.2460    -0.0645   236.4090   # DATASET 3 - Observation 125
HO_125                  3         58         59          1                  0.0     0.4381    -0.3196   222.7683   # DATASET 3 - Observation 126
HO_126                  3         60         59          1                  0.0    -0.3292    -0.4821   181.5770   # DATASET 3 - Observation 127
HO_127                  3         45         59          1                  0.0    -0.4130    -0.2403   245.4844   # DATASET 3 - Observation 128
HO_128                  2         64         57          1                  0.0    -0.1199    -0.0895   202.2395   # DATASET 3 - Observation 129
HO_129                  3         49         57          1                  0.0    -0.2249    -0.2156   229.0008   # DATASET 3 - Observation 130
HO_130                  3         55         57          1                  0.0    -0.0601    -0.3891   209.3194   # DATASET 3 - Observation 131
HO_131                  3         42         56          1                  0.0    -0.3159     0.3211   239.6684   # DATASET 3 - Observation 132
HO_132                  3         42         56          1                  0.0    -0.2133     0.2411   239.4304   # DATASET 3 - Observation 133
HO_133                  2         60         56          1                  0.0     0.1792     0.1197   212.7849   # DATASET 3 - Observation 134
HO_134                  3         51         56          1                  0.0     0.1364    -0.0995   216.1938   # DATASET 3 - Observation 135
HO_135                  3         41         56          1                  0.0    -0.2417    -0.1558   235.8403   # DATASET 3 - Observation 136
HO_136                  3         53         55          1                  0.0     0.2913    -0.3825   221.0471   # DATASET 3 - Observation 137
HO_137                  1         59         53          1                  0.0     0.3506     0.3251   240.2383   # DATASET 3 - Observation 138
HO_138                  3         59         53          1                  0.0     0.0422     0.2459   238.4085   # DATASET 3 - Observation 139
HO_139                  3         44         52          1                  0.0    -0.2714    -0.1551   243.4120   # DATASET 3 - Observation 140
HO_140                  3         40         52          1                  0.0    -0.4846    -0.3046   216.5909   # DATASET 3 - Observation 141
HO_141                  3         35         51          1                  0.0    -0.3148     0.3878   246.8575   # DATASET 3 - Observation 142
HO_142                  2         57         51          1                  0.0     0.4943    -0.4668   219.9798   # DATASET 3 - Observation 143
HO_143                  3         57         51          1                  0.0     0.3915    -0.4665   235.4193   # DATASET 3 - Observation 144
HO_144                  3         30         50          1                  0.0     0.4697     0.3606   261.6144   # DATASET 3 - Observation 145
HO_145                  3         40         50          1                  0.0    -0.0780    -0.0621   258.6902   # DATASET 3 - Observation 146
HO_146                  1         54         50          1                  0.0     0.2040    -0.3374   223.7278   # DATASET 3 - Observation 147
HO_147                  2         54         49          1                  0.0     0.2346     0.4725   216.5772   # DATASET 3 - Observation 148
HO_148                  3         50         48          1                  0.0    -0.2174     0.4756   248.2718   # DATASET 3 - Observation 149
HO_149                  3         49         48          1                  0.0     0.3712     0.3170   250.7163   # DATASET 3 - Observation 150
HO_150                  3         87         54          1                  0.0     0.1799     0.4699   189.6834   # DATASET 3 - Observation 151
HO_151                  1         82         56          1                  0.0     0.3785     0.4733   184.0695   # DATASET 3 - Observation 152
HO_152                  2         80         58          1                  0.0     0.2435    -0.4943   180.0469   # DATASET 3 - Observation 153
HO_153                  2         80         58          1                  0.0     0.2435    -0.4943   177.7863   # DATASET 3 - Observation 154
HO_154                  2         80         58          1                  0.0     0.2435    -0.4943   177.5689   # DATASET 3 - Observation 155
HO_155                  2         80         58          1                  0.0     0.2435    -0.4943   177.3616   # DATASET 3 - Observation 156
HO_156                  2         60         58          1                  0.0     0.4002     0.2939   201.2501   # DATASET 3 - Observation 157
HO_157                  2         60         58          1                  0.0     0.4002     0.2939   187.1137   # DATASET 3 - Observation 158
HO_158                  2         60         58          1                  0.0     0.4002     0.2939   196.2495   # DATASET 3 - Observation 159
HO_159                  3         58         69          1                  0.0     0.1286    -0.1384   296.0020   # DATASET 3 - Observation 160
HO_160                  3         57         49          1                  0.0    -0.3711    -0.3145   211.0440   # DATASET 3 - Observation 161
HO_161                  3         55         54          1                  0.0     0.2213    -0.0539   219.0704   # DATASET 3 - Observation 162
HO_162                  3         55         55          1                  0.0    -0.2131    -0.1700   215.0095   # DATASET 3 - Observation 163
HO_163                  3         53         59          1                  0.0     0.3571    -0.0401   231.4859   # DATASET 3 - Observation 164
HO_164                  3         53         49          1                  0.0     0.1993    -0.4812   222.9357   # DATASET 3 - Observation 165
HO_165                  3         50         64          1                  0.0     0.2089     0.2744   271.6306   # DATASET 3 - Observation 166
HO_166                  3         46         88          1                  0.0     0.1012    -0.1440   275.4259   # DATASET 3 - Observation 167
HO_167                  3         30         82          1                  0.0    -0.3957    -0.4324   291.7078   # DATASET 3 - Observation 168
HO_168                  1         30         82          1                  0.0    -0.4046    -0.3036   291.2170   # DATASET 3 - Observation 169
