# NWT package for  MODFLOW-NWT, generated by Flopy.
 5.000e-02 2.000e+02      1000 1.000e-06         2         1         1 SPECIFIED      0.75     1e-05         0       0.1         1        30      1.05       0.25
         2         0         7         7         0         0         1     0.001   0.00015       200
