# Name file for MODFLOW-NWT, to run future climate scenarios
#xll:0.0; yll:-123300.0; rotation:0.0; units:meters; lenuni:2; start_datetime:1-1-1970
LIST	2	..\..\..\..\output\output.model07.CanESM2_rcp45\modflow\rr_tr.list
DIS	11	..\modflow\rr_tr.dis
BAS6	13	..\modflow\rr_tr.bas
GHB	23	..\modflow\rr_tr.ghb
UPW	31	..\modflow\rr_tr.upw
HFB6	29	..\modflow\rr_tr.hfb
SFR	17	..\modflow\rr_tr.sfr
UZF	19	..\modflow\rr_tr.uzf
LAK	119	..\modflow\rr_tr.lak
WEL	20	..\modflow\rr_tr.wel
MNW2	21	..\modflow\rr_tr.mnw2
HOB	39	..\modflow\rr_tr.hob
GAGE	120	..\modflow\rr_tr_heavy.gage
OC	14	..\modflow\rr_tr_heavy.oc
NWT	32	..\modflow\rr_tr.nwt
DATA	1001	..\modflow\Potter_Valley_inflow.dat
DATA	1002	..\modflow\Mendo_Lake_release.dat
DATA	1003	..\modflow\Sonoma_Lake_release.dat
DATA	1004	..\modflow\Mark_West_inflow.dat
DATA	1005	..\modflow\rubber_dam_spillway_outflow.dat
DATA	1006	..\modflow\rubber_dam_gate_outflow.dat
DATA	1007	..\modflow\rubber_dam_pond_outflow.dat
DATA	1009	..\modflow\Meno_bathy.dat
DATA	1010	..\modflow\Sonoma_bathy.dat
DATA	1011	..\modflow\Bevans_bathy.dat
DATA	1012	..\modflow\Lolonis_bathy.dat
DATA	1013	..\modflow\Crawford_bathy.dat
DATA	1014	..\modflow\Bradford_bathy.dat
DATA	1015	..\modflow\Merlo_bathy.dat
DATA	1016	..\modflow\CoenC3_bathy.dat
DATA	1017	..\modflow\Murray_bathy.dat
DATA	1018	..\modflow\Mallacomes_bathy.dat
DATA	1019	..\modflow\Towibalyla_bathy.dat
DATA	1020	..\modflow\rubber_dam_lake.dat
DATA(BINARY)	55	..\..\..\..\output\output.model07.CanESM2_rcp45\modflow\rr_tr.cbc REPLACE
DATA	81	..\..\..\..\output\output.model07.CanESM2_rcp45\modflow\rr_tr.sfr.out
DATA	1008	..\..\..\..\output\output.model07.CanESM2_rcp45\modflow\rr_tr.uzf1008.out
DATA	1022	..\..\..\..\output\output.model07.CanESM2_rcp45\modflow\rr_tr.hob.out
DATA	1023	..\..\..\..\output\output.model07.CanESM2_rcp45\modflow\RUSSIAN_R_JOHNSONS_BEACH_GUERNEVILLE.go
DATA	1024	..\..\..\..\output\output.model07.CanESM2_rcp45\modflow\AUSTIN_C_NR_CAZADERO.go
DATA	1025	..\..\..\..\output\output.model07.CanESM2_rcp45\modflow\RUSSIAN_R_NR_GUERNEVILLE.go
DATA	1026	..\..\..\..\output\output.model07.CanESM2_rcp45\modflow\RUSSIAN_R_NR_WINDSOR.go
DATA	1027	..\..\..\..\output\output.model07.CanESM2_rcp45\modflow\DRY_C_NR_MOUTH_NR_HEALDSBURG.go
DATA	1028	..\..\..\..\output\output.model07.CanESM2_rcp45\modflow\RUSSIAN_R_NR_HEALDSBURG.go
DATA	1029	..\..\..\..\output\output.model07.CanESM2_rcp45\modflow\RUSSIAN_R_DIGGER_BEND_NR_HEALDSBURG.go
DATA	1030	..\..\..\..\output\output.model07.CanESM2_rcp45\modflow\MAACAMA_C_NR_KELLOGG.go
DATA	1031	..\..\..\..\output\output.model07.CanESM2_rcp45\modflow\DRY_C_BLW_LAMBERT_BR_NR_GEYSERVILLE.go
DATA	1032	..\..\..\..\output\output.model07.CanESM2_rcp45\modflow\RUSSIAN_R_JIMTOWN.go
DATA	1033	..\..\..\..\output\output.model07.CanESM2_rcp45\modflow\DRY_C_NR_GEYSERVILLE.go
DATA	1034	..\..\..\..\output\output.model07.CanESM2_rcp45\modflow\RUSSIAN_R_GEYSERVILLE.go
DATA	1035	..\..\..\..\output\output.model07.CanESM2_rcp45\modflow\BIG_SULPHUR_C_A_G_RESORT_NR_CLOVERDALE.go
DATA	1036	..\..\..\..\output\output.model07.CanESM2_rcp45\modflow\BIG_SULPHUR_C_NR_CLOVERDALE.go
DATA	1037	..\..\..\..\output\output.model07.CanESM2_rcp45\modflow\RUSSIAN_R_NR_CLOVERDALE.go
DATA	1038	..\..\..\..\output\output.model07.CanESM2_rcp45\modflow\RUSSIAN_R_NR_HOPLAND.go
DATA	1039	..\..\..\..\output\output.model07.CanESM2_rcp45\modflow\RUSSIAN_R_NR_TALMAG.go
DATA	1040	..\..\..\..\output\output.model07.CanESM2_rcp45\modflow\RUSSIAN_R_NR_UKIAH.go
DATA	1041	..\..\..\..\output\output.model07.CanESM2_rcp45\modflow\EF_RUSSIAN_R_NR_UKIAH.go
DATA	1042	..\..\..\..\output\output.model07.CanESM2_rcp45\modflow\EF_RUSSIAN_R_NR_CALPELLA.go
DATA	1043	..\..\..\..\output\output.model07.CanESM2_rcp45\modflow\mendo_lake_bdg.lak.out
DATA	1044	..\..\..\..\output\output.model07.CanESM2_rcp45\modflow\sonoma_lake_bdg.lak.out
DATA	1045	..\..\..\..\output\output.model07.CanESM2_rcp45\modflow\rubber_dam_lake_bdg.lak.out
DATA	1047	..\..\..\..\output\output.model07.CanESM2_rcp45\modflow\subbasin_22.go
DATA	1048	..\..\..\..\output\output.model07.CanESM2_rcp45\modflow\subbasin_21.go
DATA(BINARY)	51	..\..\..\..\output\output.model07.CanESM2_rcp45\modflow\rr_tr.hds REPLACE
AG	121	..\modflow\rr_tr_heavy.ag
DATA	5000	..\modflow\ag_diversions\div_seg_450.txt
DATA	5001	..\modflow\ag_diversions\div_seg_452.txt
DATA	5002	..\modflow\ag_diversions\div_seg_453.txt
DATA	5003	..\modflow\ag_diversions\div_seg_454.txt
DATA	5004	..\modflow\ag_diversions\div_seg_455.txt
DATA	5005	..\modflow\ag_diversions\div_seg_456.txt
DATA	5006	..\modflow\ag_diversions\div_seg_476.txt
DATA	5007	..\modflow\ag_diversions\div_seg_477.txt
DATA	5008	..\modflow\ag_diversions\div_seg_478.txt
DATA	5009	..\modflow\ag_diversions\div_seg_480.txt
DATA	5010	..\modflow\ag_diversions\div_seg_481.txt
DATA	5011	..\modflow\ag_diversions\div_seg_482.txt
DATA	5012	..\modflow\ag_diversions\div_seg_483.txt
DATA	5013	..\modflow\ag_diversions\div_seg_484.txt
DATA	5014	..\modflow\ag_diversions\div_seg_486.txt
DATA	5015	..\modflow\ag_diversions\div_seg_487.txt
DATA	5016	..\modflow\ag_diversions\div_seg_488.txt
DATA	5017	..\modflow\ag_diversions\div_seg_489.txt
DATA	5018	..\modflow\ag_diversions\div_seg_490.txt
DATA	5019	..\modflow\ag_diversions\div_seg_493.txt
DATA	5020	..\modflow\ag_diversions\div_seg_495.txt
DATA	5021	..\modflow\ag_diversions\div_seg_496.txt
DATA	5022	..\modflow\ag_diversions\div_seg_498.txt
DATA	5023	..\modflow\ag_diversions\div_seg_500.txt
DATA	5024	..\modflow\ag_diversions\div_seg_501.txt
DATA	5025	..\modflow\ag_diversions\div_seg_502.txt
DATA	5026	..\modflow\ag_diversions\div_seg_503.txt
DATA	5027	..\modflow\ag_diversions\div_seg_504.txt
DATA	5028	..\modflow\ag_diversions\div_seg_505.txt
DATA	5029	..\modflow\ag_diversions\div_seg_506.txt
DATA	5030	..\modflow\ag_diversions\div_seg_507.txt
DATA	5031	..\modflow\ag_diversions\div_seg_508.txt
DATA	5032	..\modflow\ag_diversions\div_seg_509.txt
DATA	5033	..\modflow\ag_diversions\div_seg_511.txt
DATA	5034	..\modflow\ag_diversions\div_seg_512.txt
DATA	5035	..\modflow\ag_diversions\div_seg_514.txt
DATA	5036	..\modflow\ag_diversions\div_seg_520.txt
DATA	5037	..\modflow\ag_diversions\div_seg_521.txt
DATA	5038	..\modflow\ag_diversions\div_seg_523.txt
DATA	5039	..\modflow\ag_diversions\div_seg_524.txt
DATA	5040	..\modflow\ag_diversions\div_seg_525.txt
DATA	5041	..\modflow\ag_diversions\div_seg_526.txt
DATA	5042	..\modflow\ag_diversions\div_seg_527.txt
DATA	5043	..\modflow\ag_diversions\div_seg_528.txt
DATA	5044	..\modflow\ag_diversions\div_seg_529.txt
DATA	5045	..\modflow\ag_diversions\div_seg_530.txt
DATA	5046	..\modflow\ag_diversions\div_seg_532.txt
DATA	5047	..\modflow\ag_diversions\div_seg_534.txt
DATA	5048	..\modflow\ag_diversions\div_seg_535.txt
DATA	5049	..\modflow\ag_diversions\div_seg_536.txt
DATA	5050	..\modflow\ag_diversions\div_seg_537.txt
DATA	5051	..\modflow\ag_diversions\div_seg_538.txt
DATA	5052	..\modflow\ag_diversions\div_seg_539.txt
DATA	5053	..\modflow\ag_diversions\div_seg_540.txt
DATA	5054	..\modflow\ag_diversions\div_seg_541.txt
DATA	5055	..\modflow\ag_diversions\div_seg_542.txt
DATA	5056	..\modflow\ag_diversions\div_seg_544.txt
DATA	5057	..\modflow\ag_diversions\div_seg_545.txt
DATA	5058	..\modflow\ag_diversions\div_seg_546.txt
DATA	5059	..\modflow\ag_diversions\div_seg_547.txt
DATA	5060	..\modflow\ag_diversions\div_seg_548.txt
DATA	5061	..\modflow\ag_diversions\div_seg_549.txt
DATA	5062	..\modflow\ag_diversions\div_seg_550.txt
DATA	5063	..\modflow\ag_diversions\div_seg_552.txt
DATA	5064	..\modflow\ag_diversions\div_seg_553.txt
DATA	5065	..\modflow\ag_diversions\div_seg_554.txt
DATA	5066	..\modflow\ag_diversions\div_seg_555.txt
DATA	5067	..\modflow\ag_diversions\div_seg_556.txt
DATA	5068	..\modflow\ag_diversions\div_seg_557.txt
DATA	5069	..\modflow\ag_diversions\div_seg_559.txt
DATA	5070	..\modflow\ag_diversions\div_seg_561.txt
DATA	5071	..\modflow\ag_diversions\div_seg_569.txt
DATA	5072	..\modflow\ag_diversions\div_seg_573.txt
DATA	5073	..\modflow\ag_diversions\div_seg_574.txt
DATA	5074	..\modflow\ag_diversions\div_seg_575.txt
DATA	5075	..\modflow\ag_diversions\div_seg_579.txt
DATA	5076	..\modflow\ag_diversions\div_seg_580.txt
DATA	5077	..\modflow\ag_diversions\div_seg_581.txt
DATA	5078	..\modflow\ag_diversions\div_seg_582.txt
DATA	5079	..\modflow\ag_diversions\div_seg_583.txt
DATA	5080	..\modflow\ag_diversions\div_seg_585.txt
DATA	5081	..\modflow\ag_diversions\div_seg_588.txt
DATA	5082	..\modflow\ag_diversions\div_seg_589.txt
DATA	5083	..\modflow\ag_diversions\div_seg_590.txt
DATA	5084	..\modflow\ag_diversions\div_seg_591.txt
DATA	5085	..\modflow\ag_diversions\div_seg_595.txt
DATA	5086	..\modflow\ag_diversions\div_seg_596.txt
DATA	5087	..\modflow\ag_diversions\div_seg_599.txt
DATA	5088	..\modflow\ag_diversions\div_seg_609.txt
DATA	5089	..\modflow\ag_diversions\div_seg_613.txt
DATA	5090	..\modflow\ag_diversions\div_seg_614.txt
DATA	5091	..\modflow\ag_diversions\div_seg_615.txt
DATA	5092	..\modflow\ag_diversions\div_seg_617.txt
DATA	5093	..\modflow\ag_diversions\div_seg_618.txt
DATA	5094	..\modflow\ag_diversions\div_seg_619.txt
DATA	5095	..\modflow\ag_diversions\div_seg_620.txt
DATA	5096	..\modflow\ag_diversions\div_seg_622.txt
DATA	5097	..\modflow\ag_diversions\div_seg_625.txt
DATA	5098	..\modflow\ag_diversions\div_seg_626.txt
DATA	5099	..\modflow\ag_diversions\div_seg_627.txt
DATA	5100	..\modflow\ag_diversions\div_seg_628.txt
DATA	5101	..\modflow\ag_diversions\div_seg_629.txt
DATA	5102	..\modflow\ag_diversions\div_seg_630.txt
DATA	5103	..\modflow\ag_diversions\div_seg_632.txt
DATA	5104	..\modflow\ag_diversions\div_seg_634.txt
DATA	5105	..\modflow\ag_diversions\div_seg_637.txt
DATA	5106	..\modflow\ag_diversions\div_seg_640.txt
DATA	5107	..\modflow\ag_diversions\div_seg_641.txt
DATA	7004	..\..\..\..\output\output.model07.CanESM2_rcp45\modflow\ag_iupseg_83.out
DATA	7005	..\..\..\..\output\output.model07.CanESM2_rcp45\modflow\ag_iupseg_170.out
DATA	7006	..\..\..\..\output\output.model07.CanESM2_rcp45\modflow\ag_iupseg_161.out
DATA	7007	..\..\..\..\output\output.model07.CanESM2_rcp45\modflow\ag_iupseg_153.out
DATA	7008	..\..\..\..\output\output.model07.CanESM2_rcp45\modflow\ag_iupseg_101.out
DATA	7009	..\..\..\..\output\output.model07.CanESM2_rcp45\modflow\ag_iupseg_88.out
DATA	7010	..\..\..\..\output\output.model07.CanESM2_rcp45\modflow\ag_iupseg_97.out
DATA	7011	..\..\..\..\output\output.model07.CanESM2_rcp45\modflow\ag_iupseg_76.out
DATA	7012	..\..\..\..\output\output.model07.CanESM2_rcp45\modflow\ag_iupseg_81.out
DATA	7013	..\..\..\..\output\output.model07.CanESM2_rcp45\modflow\ag_iupseg_20.out
DATA	7014	..\..\..\..\output\output.model07.CanESM2_rcp45\modflow\ag_iupseg_438.out
DATA	7015	..\..\..\..\output\output.model07.CanESM2_rcp45\modflow\ag_iupseg_393.out
DATA	7016	..\..\..\..\output\output.model07.CanESM2_rcp45\modflow\ag_iupseg_389.out
DATA	7017	..\..\..\..\output\output.model07.CanESM2_rcp45\modflow\ag_iupseg_383.out
DATA	7018	..\..\..\..\output\output.model07.CanESM2_rcp45\modflow\ag_iupseg_372.out
DATA	7019	..\..\..\..\output\output.model07.CanESM2_rcp45\modflow\ag_iupseg_348.out
DATA	7020	..\..\..\..\output\output.model07.CanESM2_rcp45\modflow\ag_iupseg_341.out
DATA	7021	..\..\..\..\output\output.model07.CanESM2_rcp45\modflow\ag_iupseg_357.out
DATA	7022	..\..\..\..\output\output.model07.CanESM2_rcp45\modflow\ag_iupseg_281.out
DATA	7023	..\..\..\..\output\output.model07.CanESM2_rcp45\modflow\ag_iupseg_214.out
DATA	7024	..\..\..\..\output\output.model07.CanESM2_rcp45\modflow\ag_iupseg_228.out
DATA	7025	..\..\..\..\output\output.model07.CanESM2_rcp45\modflow\ag_iupseg_262.out
DATA	7026	..\..\..\..\output\output.model07.CanESM2_rcp45\modflow\ag_iupseg_270.out
DATA	7027	..\..\..\..\output\output.model07.CanESM2_rcp45\modflow\ag_iupseg_278.out
DATA	7028	..\..\..\..\output\output.model07.CanESM2_rcp45\modflow\ag_iupseg_282.out
DATA	7029	..\..\..\..\output\output.model07.CanESM2_rcp45\modflow\ag_iupseg_296.out
DATA	7030	..\..\..\..\output\output.model07.CanESM2_rcp45\modflow\ag_iupseg_308.out
DATA	7031	..\..\..\..\output\output.model07.CanESM2_rcp45\modflow\ag_iupseg_318.out
DATA	7032	..\..\..\..\output\output.model07.CanESM2_rcp45\modflow\ag_iupseg_323.out
DATA	7033	..\..\..\..\output\output.model07.CanESM2_rcp45\modflow\ag_iupseg_310.out
DATA	7034	..\..\..\..\output\output.model07.CanESM2_rcp45\modflow\ag_iupseg_408.out
DATA	7035	..\..\..\..\output\output.model07.CanESM2_rcp45\modflow\ag_iupseg_422.out
DATA	7036	..\..\..\..\output\output.model07.CanESM2_rcp45\modflow\ag_iupseg_416.out
DATA	7037	..\..\..\..\output\output.model07.CanESM2_rcp45\modflow\ag_iupseg_426.out
DATA	7038	..\..\..\..\output\output.model07.CanESM2_rcp45\modflow\ag_iupseg_365.out
DATA	6000	..\..\..\..\output\output.model07.CanESM2_rcp45\modflow\div_seg_451_flow.out
DATA	6001	..\..\..\..\output\output.model07.CanESM2_rcp45\modflow\div_seg_479_flow.out
DATA	6002	..\..\..\..\output\output.model07.CanESM2_rcp45\modflow\div_seg_491_flow.out
DATA	6003	..\..\..\..\output\output.model07.CanESM2_rcp45\modflow\div_seg_492_flow.out
DATA	6004	..\..\..\..\output\output.model07.CanESM2_rcp45\modflow\div_seg_513_flow.out
DATA	6005	..\..\..\..\output\output.model07.CanESM2_rcp45\modflow\div_seg_516_flow.out
DATA	6006	..\..\..\..\output\output.model07.CanESM2_rcp45\modflow\div_seg_517_flow.out
DATA	6007	..\..\..\..\output\output.model07.CanESM2_rcp45\modflow\div_seg_518_flow.out
DATA	6008	..\..\..\..\output\output.model07.CanESM2_rcp45\modflow\div_seg_519_flow.out
DATA	6009	..\..\..\..\output\output.model07.CanESM2_rcp45\modflow\div_seg_522_flow.out
DATA	6010	..\..\..\..\output\output.model07.CanESM2_rcp45\modflow\div_seg_543_flow.out
DATA	6011	..\..\..\..\output\output.model07.CanESM2_rcp45\modflow\div_seg_551_flow.out
DATA	6012	..\..\..\..\output\output.model07.CanESM2_rcp45\modflow\div_seg_562_flow.out
DATA	6013	..\..\..\..\output\output.model07.CanESM2_rcp45\modflow\div_seg_563_flow.out
DATA	6014	..\..\..\..\output\output.model07.CanESM2_rcp45\modflow\div_seg_564_flow.out
DATA	6015	..\..\..\..\output\output.model07.CanESM2_rcp45\modflow\div_seg_565_flow.out
DATA	6016	..\..\..\..\output\output.model07.CanESM2_rcp45\modflow\div_seg_566_flow.out
DATA	6017	..\..\..\..\output\output.model07.CanESM2_rcp45\modflow\div_seg_568_flow.out
DATA	6018	..\..\..\..\output\output.model07.CanESM2_rcp45\modflow\div_seg_572_flow.out
DATA	6019	..\..\..\..\output\output.model07.CanESM2_rcp45\modflow\div_seg_576_flow.out
DATA	6020	..\..\..\..\output\output.model07.CanESM2_rcp45\modflow\div_seg_577_flow.out
DATA	6021	..\..\..\..\output\output.model07.CanESM2_rcp45\modflow\div_seg_578_flow.out
DATA	6022	..\..\..\..\output\output.model07.CanESM2_rcp45\modflow\div_seg_586_flow.out
DATA	6023	..\..\..\..\output\output.model07.CanESM2_rcp45\modflow\div_seg_592_flow.out
DATA	6024	..\..\..\..\output\output.model07.CanESM2_rcp45\modflow\div_seg_594_flow.out
DATA	6025	..\..\..\..\output\output.model07.CanESM2_rcp45\modflow\div_seg_601_flow.out
DATA	6026	..\..\..\..\output\output.model07.CanESM2_rcp45\modflow\div_seg_603_flow.out
DATA	6027	..\..\..\..\output\output.model07.CanESM2_rcp45\modflow\div_seg_605_flow.out
DATA	6028	..\..\..\..\output\output.model07.CanESM2_rcp45\modflow\div_seg_606_flow.out
DATA	6029	..\..\..\..\output\output.model07.CanESM2_rcp45\modflow\div_seg_608_flow.out
DATA	6030	..\..\..\..\output\output.model07.CanESM2_rcp45\modflow\div_seg_612_flow.out
DATA	6031	..\..\..\..\output\output.model07.CanESM2_rcp45\modflow\div_seg_621_flow.out
DATA	6032	..\..\..\..\output\output.model07.CanESM2_rcp45\modflow\div_seg_624_flow.out
DATA	6033	..\..\..\..\output\output.model07.CanESM2_rcp45\modflow\div_seg_633_flow.out
DATA	6034	..\..\..\..\output\output.model07.CanESM2_rcp45\modflow\div_seg_635_flow.out
DATA	6035	..\..\..\..\output\output.model07.CanESM2_rcp45\modflow\div_seg_636_flow.out
DATA	6036	..\..\..\..\output\output.model07.CanESM2_rcp45\modflow\div_seg_638_flow.out
DATA	6037	..\..\..\..\output\output.model07.CanESM2_rcp45\modflow\div_seg_639_flow.out
DATA	6038	..\..\..\..\output\output.model07.CanESM2_rcp45\modflow\div_seg_642_flow.out
DATA	6039	..\..\..\..\output\output.model07.CanESM2_rcp45\modflow\div_seg_451_et.out
DATA	6040	..\..\..\..\output\output.model07.CanESM2_rcp45\modflow\div_seg_479_et.out
DATA	6041	..\..\..\..\output\output.model07.CanESM2_rcp45\modflow\div_seg_491_et.out
DATA	6042	..\..\..\..\output\output.model07.CanESM2_rcp45\modflow\div_seg_492_et.out
DATA	6043	..\..\..\..\output\output.model07.CanESM2_rcp45\modflow\div_seg_513_et.out
DATA	6044	..\..\..\..\output\output.model07.CanESM2_rcp45\modflow\div_seg_516_et.out
DATA	6045	..\..\..\..\output\output.model07.CanESM2_rcp45\modflow\div_seg_517_et.out
DATA	6046	..\..\..\..\output\output.model07.CanESM2_rcp45\modflow\div_seg_518_et.out
DATA	6047	..\..\..\..\output\output.model07.CanESM2_rcp45\modflow\div_seg_519_et.out
DATA	6048	..\..\..\..\output\output.model07.CanESM2_rcp45\modflow\div_seg_522_et.out
DATA	6049	..\..\..\..\output\output.model07.CanESM2_rcp45\modflow\div_seg_543_et.out
DATA	6050	..\..\..\..\output\output.model07.CanESM2_rcp45\modflow\div_seg_551_et.out
DATA	6051	..\..\..\..\output\output.model07.CanESM2_rcp45\modflow\div_seg_562_et.out
DATA	6052	..\..\..\..\output\output.model07.CanESM2_rcp45\modflow\div_seg_563_et.out
DATA	6053	..\..\..\..\output\output.model07.CanESM2_rcp45\modflow\div_seg_564_et.out
DATA	6054	..\..\..\..\output\output.model07.CanESM2_rcp45\modflow\div_seg_565_et.out
DATA	6055	..\..\..\..\output\output.model07.CanESM2_rcp45\modflow\div_seg_566_et.out
DATA	6056	..\..\..\..\output\output.model07.CanESM2_rcp45\modflow\div_seg_568_et.out
DATA	6057	..\..\..\..\output\output.model07.CanESM2_rcp45\modflow\div_seg_572_et.out
DATA	6058	..\..\..\..\output\output.model07.CanESM2_rcp45\modflow\div_seg_576_et.out
DATA	6059	..\..\..\..\output\output.model07.CanESM2_rcp45\modflow\div_seg_577_et.out
DATA	6060	..\..\..\..\output\output.model07.CanESM2_rcp45\modflow\div_seg_578_et.out
DATA	6061	..\..\..\..\output\output.model07.CanESM2_rcp45\modflow\div_seg_586_et.out
DATA	6062	..\..\..\..\output\output.model07.CanESM2_rcp45\modflow\div_seg_592_et.out
DATA	6063	..\..\..\..\output\output.model07.CanESM2_rcp45\modflow\div_seg_594_et.out
DATA	6064	..\..\..\..\output\output.model07.CanESM2_rcp45\modflow\div_seg_601_et.out
DATA	6065	..\..\..\..\output\output.model07.CanESM2_rcp45\modflow\div_seg_603_et.out
DATA	6066	..\..\..\..\output\output.model07.CanESM2_rcp45\modflow\div_seg_605_et.out
DATA	6067	..\..\..\..\output\output.model07.CanESM2_rcp45\modflow\div_seg_606_et.out
DATA	6068	..\..\..\..\output\output.model07.CanESM2_rcp45\modflow\div_seg_608_et.out
DATA	6069	..\..\..\..\output\output.model07.CanESM2_rcp45\modflow\div_seg_612_et.out
DATA	6070	..\..\..\..\output\output.model07.CanESM2_rcp45\modflow\div_seg_621_et.out
DATA	6071	..\..\..\..\output\output.model07.CanESM2_rcp45\modflow\div_seg_624_et.out
DATA	6072	..\..\..\..\output\output.model07.CanESM2_rcp45\modflow\div_seg_633_et.out
DATA	6073	..\..\..\..\output\output.model07.CanESM2_rcp45\modflow\div_seg_635_et.out
DATA	6074	..\..\..\..\output\output.model07.CanESM2_rcp45\modflow\div_seg_636_et.out
DATA	6075	..\..\..\..\output\output.model07.CanESM2_rcp45\modflow\div_seg_638_et.out
DATA	6076	..\..\..\..\output\output.model07.CanESM2_rcp45\modflow\div_seg_639_et.out
DATA	6077	..\..\..\..\output\output.model07.CanESM2_rcp45\modflow\div_seg_642_et.out
DATA	6500	..\..\..\..\output\output.model07.CanESM2_rcp45\modflow\ag_well_65.out
DATA	6501	..\..\..\..\output\output.model07.CanESM2_rcp45\modflow\ag_well_416.out
DATA	6502	..\..\..\..\output\output.model07.CanESM2_rcp45\modflow\ag_well_417.out
DATA	6503	..\..\..\..\output\output.model07.CanESM2_rcp45\modflow\ag_well_418.out
DATA	6504	..\..\..\..\output\output.model07.CanESM2_rcp45\modflow\ag_well_419.out
DATA	6505	..\..\..\..\output\output.model07.CanESM2_rcp45\modflow\ag_well_434.out
DATA	6506	..\..\..\..\output\output.model07.CanESM2_rcp45\modflow\ag_wellet_65.out
DATA	6507	..\..\..\..\output\output.model07.CanESM2_rcp45\modflow\ag_wellet_416.out
DATA	6508	..\..\..\..\output\output.model07.CanESM2_rcp45\modflow\ag_wellet_417.out
DATA	6509	..\..\..\..\output\output.model07.CanESM2_rcp45\modflow\ag_wellet_418.out
DATA	6510	..\..\..\..\output\output.model07.CanESM2_rcp45\modflow\ag_wellet_419.out
DATA	6511	..\..\..\..\output\output.model07.CanESM2_rcp45\modflow\ag_wellet_434.out
DATA	3000	..\..\..\..\output\output.model07.CanESM2_rcp45\modflow\ag_pond_14231.out
DATA	3001	..\..\..\..\output\output.model07.CanESM2_rcp45\modflow\ag_pond_14483.out
DATA	3002	..\..\..\..\output\output.model07.CanESM2_rcp45\modflow\ag_pond_14485.out
DATA	3003	..\..\..\..\output\output.model07.CanESM2_rcp45\modflow\ag_pond_13979.out
DATA	3004	..\..\..\..\output\output.model07.CanESM2_rcp45\modflow\ag_pond_14233.out
DATA	3005	..\..\..\..\output\output.model07.CanESM2_rcp45\modflow\ag_pond_14738.out
DATA	3006	..\..\..\..\output\output.model07.CanESM2_rcp45\modflow\ag_pond_14739.out
DATA	3007	..\..\..\..\output\output.model07.CanESM2_rcp45\modflow\ag_pond_14495.out
DATA	3008	..\..\..\..\output\output.model07.CanESM2_rcp45\modflow\ag_pond_17018.out
DATA	3009	..\..\..\..\output\output.model07.CanESM2_rcp45\modflow\ag_pond_15246.out
DATA	3010	..\..\..\..\output\output.model07.CanESM2_rcp45\modflow\ag_pond_35498.out
DATA	3011	..\..\..\..\output\output.model07.CanESM2_rcp45\modflow\ag_pond_35750.out
DATA	3012	..\..\..\..\output\output.model07.CanESM2_rcp45\modflow\ag_pond_35751.out
DATA	3013	..\..\..\..\output\output.model07.CanESM2_rcp45\modflow\ag_pond_47670.out
DATA	3014	..\..\..\..\output\output.model07.CanESM2_rcp45\modflow\ag_pond_49417.out
DATA	3015	..\..\..\..\output\output.model07.CanESM2_rcp45\modflow\ag_pond_48416.out
DATA	3016	..\..\..\..\output\output.model07.CanESM2_rcp45\modflow\ag_pond_47913.out
DATA	3017	..\..\..\..\output\output.model07.CanESM2_rcp45\modflow\ag_pond_48666.out
DATA	3018	..\..\..\..\output\output.model07.CanESM2_rcp45\modflow\ag_pond_49674.out
DATA	3019	..\..\..\..\output\output.model07.CanESM2_rcp45\modflow\ag_pond_48151.out
DATA	3020	..\..\..\..\output\output.model07.CanESM2_rcp45\modflow\ag_pond_49164.out
DATA	3021	..\..\..\..\output\output.model07.CanESM2_rcp45\modflow\ag_pond_48147.out
DATA	3022	..\..\..\..\output\output.model07.CanESM2_rcp45\modflow\ag_pond_46891.out
DATA	3023	..\..\..\..\output\output.model07.CanESM2_rcp45\modflow\ag_pond_50683.out
DATA	3024	..\..\..\..\output\output.model07.CanESM2_rcp45\modflow\ag_pond_49421.out
DATA	3025	..\..\..\..\output\output.model07.CanESM2_rcp45\modflow\ag_pond_46133.out
DATA	3026	..\..\..\..\output\output.model07.CanESM2_rcp45\modflow\ag_pond_70742.out
DATA	3027	..\..\..\..\output\output.model07.CanESM2_rcp45\modflow\ag_pond_75564.out
DATA	3028	..\..\..\..\output\output.model07.CanESM2_rcp45\modflow\ag_pond_76575.out
DATA	3029	..\..\..\..\output\output.model07.CanESM2_rcp45\modflow\ag_pond_75822.out
DATA	3030	..\..\..\..\output\output.model07.CanESM2_rcp45\modflow\ag_pond_75569.out
DATA	3031	..\..\..\..\output\output.model07.CanESM2_rcp45\modflow\ag_pond_74813.out
DATA	3032	..\..\..\..\output\output.model07.CanESM2_rcp45\modflow\ag_pond_76321.out
DATA	3033	..\..\..\..\output\output.model07.CanESM2_rcp45\modflow\ag_pond_74780.out
DATA	3034	..\..\..\..\output\output.model07.CanESM2_rcp45\modflow\ag_pond_85907.out
DATA	3035	..\..\..\..\output\output.model07.CanESM2_rcp45\modflow\ag_pond_86919.out
DATA	3036	..\..\..\..\output\output.model07.CanESM2_rcp45\modflow\ag_pond_51462.out
DATA	3037	..\..\..\..\output\output.model07.CanESM2_rcp45\modflow\ag_pond_48936.out
DATA	3038	..\..\..\..\output\output.model07.CanESM2_rcp45\modflow\ag_pond_48426.out
DATA	3039	..\..\..\..\output\output.model07.CanESM2_rcp45\modflow\ag_pond_49695.out
DATA	3040	..\..\..\..\output\output.model07.CanESM2_rcp45\modflow\ag_pond_52217.out
DATA	3041	..\..\..\..\output\output.model07.CanESM2_rcp45\modflow\ag_pond_50203.out
DATA	3042	..\..\..\..\output\output.model07.CanESM2_rcp45\modflow\ag_pond_49949.out
DATA	3043	..\..\..\..\output\output.model07.CanESM2_rcp45\modflow\ag_pond_49444.out
DATA	3044	..\..\..\..\output\output.model07.CanESM2_rcp45\modflow\ag_pond_52204.out
DATA	3045	..\..\..\..\output\output.model07.CanESM2_rcp45\modflow\ag_pond_51952.out
DATA	3046	..\..\..\..\output\output.model07.CanESM2_rcp45\modflow\ag_pond_52200.out
DATA	3047	..\..\..\..\output\output.model07.CanESM2_rcp45\modflow\ag_pond_51707.out
DATA	3048	..\..\..\..\output\output.model07.CanESM2_rcp45\modflow\ag_pond_51197.out
DATA	3049	..\..\..\..\output\output.model07.CanESM2_rcp45\modflow\ag_pond_49939.out
DATA	3050	..\..\..\..\output\output.model07.CanESM2_rcp45\modflow\ag_pond_50193.out
DATA	3051	..\..\..\..\output\output.model07.CanESM2_rcp45\modflow\ag_pond_51962.out
DATA	3052	..\..\..\..\output\output.model07.CanESM2_rcp45\modflow\ag_pond_50447.out
DATA	3053	..\..\..\..\output\output.model07.CanESM2_rcp45\modflow\ag_pond_53257.out
DATA	3054	..\..\..\..\output\output.model07.CanESM2_rcp45\modflow\ag_pond_51740.out
DATA	3055	..\..\..\..\output\output.model07.CanESM2_rcp45\modflow\ag_pond_51744.out
DATA	3056	..\..\..\..\output\output.model07.CanESM2_rcp45\modflow\ag_pond_52245.out
DATA	3057	..\..\..\..\output\output.model07.CanESM2_rcp45\modflow\ag_pond_52752.out
DATA	3058	..\..\..\..\output\output.model07.CanESM2_rcp45\modflow\ag_pond_52498.out
DATA	3059	..\..\..\..\output\output.model07.CanESM2_rcp45\modflow\ag_pond_52999.out
DATA	3060	..\..\..\..\output\output.model07.CanESM2_rcp45\modflow\ag_pond_51986.out
DATA	3061	..\..\..\..\output\output.model07.CanESM2_rcp45\modflow\ag_pond_52535.out
DATA	3062	..\..\..\..\output\output.model07.CanESM2_rcp45\modflow\ag_pond_49991.out
DATA	3063	..\..\..\..\output\output.model07.CanESM2_rcp45\modflow\ag_pond_51983.out
DATA	3064	..\..\..\..\output\output.model07.CanESM2_rcp45\modflow\ag_pond_51484.out
DATA	3065	..\..\..\..\output\output.model07.CanESM2_rcp45\modflow\ag_pond_51480.out
DATA	3066	..\..\..\..\output\output.model07.CanESM2_rcp45\modflow\ag_pond_51228.out
DATA	3067	..\..\..\..\output\output.model07.CanESM2_rcp45\modflow\ag_pond_51979.out
DATA	3068	..\..\..\..\output\output.model07.CanESM2_rcp45\modflow\ag_pond_51475.out
DATA	3069	..\..\..\..\output\output.model07.CanESM2_rcp45\modflow\ag_pond_52490.out
DATA	3070	..\..\..\..\output\output.model07.CanESM2_rcp45\modflow\ag_pond_51982.out
DATA	3071	..\..\..\..\output\output.model07.CanESM2_rcp45\modflow\ag_pond_54270.out
DATA	3072	..\..\..\..\output\output.model07.CanESM2_rcp45\modflow\ag_pond_51981.out
DATA	3073	..\..\..\..\output\output.model07.CanESM2_rcp45\modflow\ag_pond_49698.out
DATA	3074	..\..\..\..\output\output.model07.CanESM2_rcp45\modflow\ag_pond_51735.out
DATA	3075	..\..\..\..\output\output.model07.CanESM2_rcp45\modflow\ag_pond_49193.out
DATA	3076	..\..\..\..\output\output.model07.CanESM2_rcp45\modflow\ag_pond_49448.out
DATA	3077	..\..\..\..\output\output.model07.CanESM2_rcp45\modflow\ag_pond_43324.out
DATA	3078	..\..\..\..\output\output.model07.CanESM2_rcp45\modflow\ag_pond_42060.out
DATA	3079	..\..\..\..\output\output.model07.CanESM2_rcp45\modflow\ag_pond_43330.out
DATA	3080	..\..\..\..\output\output.model07.CanESM2_rcp45\modflow\ag_pond_46873.out
DATA	3081	..\..\..\..\output\output.model07.CanESM2_rcp45\modflow\ag_pond_44862.out
DATA	3082	..\..\..\..\output\output.model07.CanESM2_rcp45\modflow\ag_pond_47373.out
DATA	3083	..\..\..\..\output\output.model07.CanESM2_rcp45\modflow\ag_pond_46104.out
DATA	3084	..\..\..\..\output\output.model07.CanESM2_rcp45\modflow\ag_pond_48382.out
DATA	3085	..\..\..\..\output\output.model07.CanESM2_rcp45\modflow\ag_pond_57225.out
DATA	3086	..\..\..\..\output\output.model07.CanESM2_rcp45\modflow\ag_pond_44329.out
DATA	3087	..\..\..\..\output\output.model07.CanESM2_rcp45\modflow\ag_pond_44831.out
DATA	3088	..\..\..\..\output\output.model07.CanESM2_rcp45\modflow\ag_pond_55716.out
DATA	3089	..\..\..\..\output\output.model07.CanESM2_rcp45\modflow\ag_pond_39540.out
DATA	3090	..\..\..\..\output\output.model07.CanESM2_rcp45\modflow\ag_pond_40281.out
DATA	3091	..\..\..\..\output\output.model07.CanESM2_rcp45\modflow\ag_pond_38527.out
DATA	3092	..\..\..\..\output\output.model07.CanESM2_rcp45\modflow\ag_pond_39284.out
DATA	3093	..\..\..\..\output\output.model07.CanESM2_rcp45\modflow\ag_pond_38273.out
DATA	3094	..\..\..\..\output\output.model07.CanESM2_rcp45\modflow\ag_pond_39541.out
DATA	3095	..\..\..\..\output\output.model07.CanESM2_rcp45\modflow\ag_pond_40557.out
DATA	3096	..\..\..\..\output\output.model07.CanESM2_rcp45\modflow\ag_pond_40052.out
DATA	3097	..\..\..\..\output\output.model07.CanESM2_rcp45\modflow\ag_pond_41068.out
DATA	3098	..\..\..\..\output\output.model07.CanESM2_rcp45\modflow\ag_pond_39542.out
DATA	3099	..\..\..\..\output\output.model07.CanESM2_rcp45\modflow\ag_pond_39810.out
DATA	3100	..\..\..\..\output\output.model07.CanESM2_rcp45\modflow\ag_pond_39805.out
DATA	3101	..\..\..\..\output\output.model07.CanESM2_rcp45\modflow\ag_pond_39553.out
DATA	3102	..\..\..\..\output\output.model07.CanESM2_rcp45\modflow\ag_pond_39548.out
DATA	3103	..\..\..\..\output\output.model07.CanESM2_rcp45\modflow\ag_pond_38788.out
DATA	3104	..\..\..\..\output\output.model07.CanESM2_rcp45\modflow\ag_pond_38792.out
DATA	3105	..\..\..\..\output\output.model07.CanESM2_rcp45\modflow\ag_pond_38283.out
DATA	3106	..\..\..\..\output\output.model07.CanESM2_rcp45\modflow\ag_pond_38281.out
DATA	3107	..\..\..\..\output\output.model07.CanESM2_rcp45\modflow\ag_pond_38028.out
DATA	3108	..\..\..\..\output\output.model07.CanESM2_rcp45\modflow\ag_pond_40817.out
DATA	3109	..\..\..\..\output\output.model07.CanESM2_rcp45\modflow\ag_pond_39292.out
DATA	3110	..\..\..\..\output\output.model07.CanESM2_rcp45\modflow\ag_pond_39293.out
DATA	3111	..\..\..\..\output\output.model07.CanESM2_rcp45\modflow\ag_pond_38279.out
DATA	3112	..\..\..\..\output\output.model07.CanESM2_rcp45\modflow\ag_pond_39811.out
DATA	3113	..\..\..\..\output\output.model07.CanESM2_rcp45\modflow\ag_pond_38288.out