# MNW2 package for MODFLOW-NWT generated by Flopy 3.3.6
429 0 0
s1700502w1 -1
            skin 0 0 1 0
               1.0000000E+00    1.2500000E+01    3.1250000E+01
               1.4421640E+02    1.3659641E+02 162 80
s2300507w1 -1
            skin 0 0 1 0
               1.0000000E+00    1.2500000E+01    3.1250000E+01
               1.6707961E+02    1.3059505E+02 59 57
s2300605w1 -1
            skin 0 0 1 0
               1.0000000E+00    1.2500000E+01    3.1250000E+01
               1.5026001E+02    1.4203041E+02 133 75
s2300605w2 -1
            skin 0 0 1 0
               1.0000000E+00    1.2500000E+01    3.1250000E+01
               1.4895641E+02    1.2701080E+02 129 73
s2300605w3 -1
            skin 0 0 1 0
               1.0000000E+00    1.2500000E+01    3.1250000E+01
               1.5169960E+02    1.2393233E+02 129 73
s2300605w4 -1
            skin 0 0 1 0
               1.0000000E+00    1.2500000E+01    3.1250000E+01
               1.5169960E+02    1.2393233E+02 129 73
s2300605w5 -1
            skin 0 0 1 0
               1.0000000E+00    1.2500000E+01    3.1250000E+01
               1.5169960E+02    1.1814113E+02 129 73
s2300606w1 -1
            skin 0 0 1 0
               1.0000000E+00    1.2500000E+01    3.1250000E+01
               3.4753320E+02    3.1583401E+02 61 67
s2300606w2 -1
            skin 0 0 1 0
               1.0000000E+00    1.2500000E+01    3.1250000E+01
               3.4753320E+02    3.1583401E+02 61 67
s2300606w3 -1
            skin 0 0 1 0
               1.0000000E+00    1.2500000E+01    3.1250000E+01
               3.8505319E+02    3.5335400E+02 61 68
s2300606w4 -1
            skin 0 0 1 0
               1.0000000E+00    1.2500000E+01    3.1250000E+01
               2.5535321E+02    2.2365401E+02 62 67
s2300606w5 -1
            skin 0 0 1 0
               1.0000000E+00    1.2500000E+01    3.1250000E+01
               2.5535321E+02    2.2365401E+02 62 67
s2300708w1 -1
            skin 0 0 1 0
               1.0000000E+00    1.2500000E+01    3.1250000E+01
               3.6422321E+02    3.3252402E+02 34 24
s2300708w2 -1
            skin 0 0 1 0
               1.0000000E+00    1.2500000E+01    3.1250000E+01
               6.2672400E+02    6.0538800E+02 32 32
s2300708w3 -1
            skin 0 0 1 0
               1.0000000E+00    1.2500000E+01    3.1250000E+01
               5.4341400E+02    5.2207800E+02 29 28
s2300731w1 -1
            skin 0 0 1 0
               1.0000000E+00    1.2500000E+01    3.1250000E+01
               1.8231760E+02    1.5884799E+02 102 68
s2300731w2 -1
            skin 0 0 1 0
               1.0000000E+00    1.2500000E+01    3.1250000E+01
               1.7999760E+02    1.5652800E+02 101 67
s2300731w3 -1
            skin 0 0 1 0
               1.0000000E+00    1.2500000E+01    3.1250000E+01
               1.8231760E+02    1.5884799E+02 102 68
s2300755w1 -1
            skin 0 0 1 0
               1.0000000E+00    1.2500000E+01    3.1250000E+01
               2.8178400E+02    2.7260953E+02 32 85
s2300755w2 -1
            skin 0 0 1 0
               1.0000000E+00    1.2500000E+01    3.1250000E+01
               2.8178400E+02    2.6044800E+02 32 85
s2300837w1 -1
            skin 0 0 1 0
               1.0000000E+00    1.2500000E+01    3.1250000E+01
               1.5952640E+02    1.3758080E+02 117 66
s2300838w1 -1
            skin 0 0 1 0
               1.0000000E+00    1.2500000E+01    3.1250000E+01
               1.5017000E+02    1.4194040E+02 137 77
s2300838w2 -1
            skin 0 0 1 0
               1.0000000E+00    1.2500000E+01    3.1250000E+01
               1.6319000E+02    1.5496040E+02 133 71
s2300838w3 -1
            skin 0 0 1 0
               1.0000000E+00    1.2500000E+01    3.1250000E+01
               1.6319000E+02    1.5496040E+02 133 71
s2300838w4 -1
            skin 0 0 1 0
               1.0000000E+00    1.2500000E+01    3.1250000E+01
               1.5018001E+02    1.4195041E+02 136 77
s2300842w1 -1
            skin 0 0 1 0
               1.0000000E+00    1.2500000E+01    3.1250000E+01
               6.2851601E+01    5.2183598E+01 233 117
s2300852w1 -1
            skin 0 0 1 0
               1.0000000E+00    1.2500000E+01    3.1250000E+01
               1.4472000E+02    1.2759023E+02 155 84
s2300852w2 -1
            skin 0 0 1 0
               1.0000000E+00    1.2500000E+01    3.1250000E+01
               1.4634441E+02    1.2796497E+02 155 85
s2300852w3 -1
            skin 0 0 1 0
               1.0000000E+00    1.2500000E+01    3.1250000E+01
               1.4472000E+02    1.3649040E+02 155 84
s2300853w1 -1
            skin 0 0 1 0
               1.0000000E+00    1.2500000E+01    3.1250000E+01
               2.2191100E+02    1.9659599E+02 63 65
s2300854w1 -1
            skin 0 0 1 0
               1.0000000E+00    1.2500000E+01    3.1250000E+01
               2.3444321E+02    2.0274400E+02 63 63
s2300854w2 -1
            skin 0 0 1 0
               1.0000000E+00    1.2500000E+01    3.1250000E+01
               2.3251320E+02    2.0081400E+02 63 64
s2300855w1 -1
            skin 0 0 1 0
               1.0000000E+00    1.2500000E+01    3.1250000E+01
               2.2191100E+02    1.9659599E+02 63 65
s2300856w1 -1
            skin 0 0 1 0
               1.0000000E+00    1.2500000E+01    3.1250000E+01
               2.4638319E+02    2.1468399E+02 65 61
s2310002w1 -1
            skin 0 0 1 0
               1.0000000E+00    1.2500000E+01    3.1250000E+01
               1.6412399E+02    1.4370239E+02 95 62
s2310002w2 -1
            skin 0 0 1 0
               1.0000000E+00    1.2500000E+01    3.1250000E+01
               1.6412399E+02    1.4671991E+02 95 62
s2310002w3 -1
            skin 0 0 1 0
               1.0000000E+00    1.2500000E+01    3.1250000E+01
               1.6606760E+02    1.4101303E+02 96 62
s2310002w4 -1
            skin 0 0 1 0
               1.0000000E+00    1.2500000E+01    3.1250000E+01
               1.7235359E+02    1.4958504E+02 95 62
s2310002w5 -1
            skin 0 0 1 0
               1.0000000E+00    1.2500000E+01    3.1250000E+01
               1.6412399E+02    1.4370239E+02 95 62
s2310003w1 -1
            skin 0 0 1 0
               1.0000000E+00    1.2500000E+01    3.1250000E+01
               2.1674600E+02    1.7895081E+02 89 61
s2310003w2 -1
            skin 0 0 1 0
               1.0000000E+00    1.2500000E+01    3.1250000E+01
               1.7457600E+02    1.3678081E+02 91 57
s2310003w3 -1
            skin 0 0 1 0
               1.0000000E+00    1.2500000E+01    3.1250000E+01
               1.6708400E+02    1.4666240E+02 94 60
s2310003w4 -1
            skin 0 0 1 0
               1.0000000E+00    1.2500000E+01    3.1250000E+01
               1.7127760E+02    1.4780800E+02 98 57
s2310003w5 -1
            skin 0 0 1 0
               1.0000000E+00    1.2500000E+01    3.1250000E+01
               1.7390601E+02    1.0159220E+02 91 58
s2310003w6 -1
            skin 0 0 1 0
               1.0000000E+00    1.2500000E+01    3.1250000E+01
               1.7390601E+02    1.3611081E+02 91 58
s2310003w7 -1
            skin 0 0 1 0
               1.0000000E+00    1.2500000E+01    3.1250000E+01
               1.7148761E+02    1.4801801E+02 97 57
s2310003w8 -1
            skin 0 0 1 0
               1.0000000E+00    1.2500000E+01    3.1250000E+01
               1.6991760E+02    1.4644800E+02 96 59
s2310005w1 -1
            skin 0 0 1 0
               1.0000000E+00    1.2500000E+01    3.1250000E+01
               1.6659641E+02    1.4465080E+02 106 59
s2310005w2 -1
            skin 0 0 1 0
               1.0000000E+00    1.2500000E+01    3.1250000E+01
               1.6659641E+02    1.4876561E+02 106 59
s2310005w3 -1
            skin 0 0 1 0
               1.0000000E+00    1.2500000E+01    3.1250000E+01
               1.6415800E+02    1.4876561E+02 106 59
s2310005w4 -1
            skin 0 0 1 0
               1.0000000E+00    1.2500000E+01    3.1250000E+01
               1.5675639E+02    1.3481079E+02 116 63
s2310005w5 -1
            skin 0 0 1 0
               1.0000000E+00    1.2500000E+01    3.1250000E+01
               1.5675639E+02    1.3481079E+02 116 63
s2310006w1 -1
            skin 0 0 1 0
               1.0000000E+00    1.2500000E+01    3.1250000E+01
               1.8307320E+02    6.3073437E+01 79 57
s2310006w10 -1
            skin 0 0 1 0
               1.0000000E+00    1.2500000E+01    3.1250000E+01
               1.7828600E+02    6.6637756E+01 80 57
s2310006w11 -1
            skin 0 0 1 0
               1.0000000E+00    1.2500000E+01    3.1250000E+01
               1.7828600E+02    6.6637756E+01 80 57
s2310006w12 -1
            skin 0 0 1 0
               1.0000000E+00    1.2500000E+01    3.1250000E+01
               1.7828600E+02    6.6637756E+01 80 57
s2310006w13 -1
            skin 0 0 1 0
               1.0000000E+00    1.2500000E+01    3.1250000E+01
               1.7828600E+02    6.6637756E+01 80 57
s2310006w14 -1
            skin 0 0 1 0
               1.0000000E+00    1.2500000E+01    3.1250000E+01
               1.7828600E+02    6.6637756E+01 80 57
s2310006w15 -1
            skin 0 0 1 0
               1.0000000E+00    1.2500000E+01    3.1250000E+01
               1.7889560E+02    6.6637756E+01 80 57
s2310006w16 -1
            skin 0 0 1 0
               1.0000000E+00    1.2500000E+01    3.1250000E+01
               1.7950519E+02    6.6637756E+01 80 57
s2310006w17 -1
            skin 0 0 1 0
               1.0000000E+00    1.2500000E+01    3.1250000E+01
               1.7889560E+02    1.7554279E+02 80 57
s2310006w18 -1
            skin 0 0 1 0
               1.0000000E+00    1.2500000E+01    3.1250000E+01
               1.7889560E+02    1.7554279E+02 80 57
s2310006w19 -1
            skin 0 0 1 0
               1.0000000E+00    1.2500000E+01    3.1250000E+01
               1.7828600E+02    6.3336769E+01 80 57
s2310006w2 -1
            skin 0 0 1 0
               1.0000000E+00    1.2500000E+01    3.1250000E+01
               1.8164320E+02    6.5727768E+01 81 57
s2310006w20 -1
            skin 0 0 1 0
               1.0000000E+00    1.2500000E+01    3.1250000E+01
               1.7889560E+02    1.7554279E+02 80 57
s2310006w3 -1
            skin 0 0 1 0
               1.0000000E+00    1.2500000E+01    3.1250000E+01
               1.8323401E+02    9.1519684E+01 81 56
s2310006w4 -1
            skin 0 0 1 0
               1.0000000E+00    1.2500000E+01    3.1250000E+01
               1.8164320E+02    1.7249921E+02 81 57
s2310006w5 -1
            skin 0 0 1 0
               1.0000000E+00    1.2500000E+01    3.1250000E+01
               1.8164320E+02    1.7249921E+02 81 57
s2310006w6 -1
            skin 0 0 1 0
               1.0000000E+00    1.2500000E+01    3.1250000E+01
               1.7889560E+02    6.6637756E+01 80 57
s2310006w7 -1
            skin 0 0 1 0
               1.0000000E+00    1.2500000E+01    3.1250000E+01
               1.7859079E+02    1.7523799E+02 80 57
s2310006w8 -1
            skin 0 0 1 0
               1.0000000E+00    1.2500000E+01    3.1250000E+01
               1.7828600E+02    1.7523799E+02 80 57
s2310006w9 -1
            skin 0 0 1 0
               1.0000000E+00    1.2500000E+01    3.1250000E+01
               1.8102919E+02    6.6637756E+01 80 57
s2310010w1 -1
            skin 0 0 1 0
               1.0000000E+00    1.2500000E+01    3.1250000E+01
               1.4421640E+02    1.3659641E+02 162 80
s2310010w2 -1
            skin 0 0 1 0
               1.0000000E+00    1.2500000E+01    3.1250000E+01
               1.3589639E+02    1.2827640E+02 161 84
s2310010w3 -1
            skin 0 0 1 0
               1.0000000E+00    1.2500000E+01    3.1250000E+01
               1.4421640E+02    1.3028705E+02 162 80
s4900107w1 -1
            skin 0 0 1 0
               1.0000000E+00    1.2500000E+01    3.1250000E+01
               3.0405199E+01    5.7163997E+00 274 166
s4900508w1 -1
            skin 0 0 1 0
               1.0000000E+00    1.2500000E+01    3.1250000E+01
               3.3160000E+01   -1.6187120E+01 322 88
s4900508w2 -1
            skin 0 0 1 0
               1.0000000E+00    1.2500000E+01    3.1250000E+01
               3.3160000E+01   -2.2831760E+01 322 88
s4900508w3 -1
            skin 0 0 1 0
               1.0000000E+00    1.2500000E+01    3.1250000E+01
               3.6110202E+02    3.4281403E+02 326 82
s4900508w4 -1
            skin 0 0 1 0
               1.0000000E+00    1.2500000E+01    3.1250000E+01
               3.2042001E+02    3.1737201E+02 324 84
s4900508w5 -1
            skin 0 0 1 0
               1.0000000E+00    1.2500000E+01    3.1250000E+01
               3.2042001E+02    3.1737201E+02 324 84
s4900508w6 -1
            skin 0 0 1 0
               1.0000000E+00    1.2500000E+01    3.1250000E+01
               3.6110202E+02    3.4281403E+02 326 82
s4900508w7 -1
            skin 0 0 1 0
               1.0000000E+00    1.2500000E+01    3.1250000E+01
               3.3160000E+01    3.0112000E+01 322 88
s4900508w8 -1
            skin 0 0 1 0
               1.0000000E+00    1.2500000E+01    3.1250000E+01
               3.7316000E+02    3.7011200E+02 324 83
s4900508w9 -1
            skin 0 0 1 0
               1.0000000E+00    1.2500000E+01    3.1250000E+01
               3.3160000E+01    3.0112000E+01 322 88
s4900510w1 -1
            skin 0 0 1 0
               1.0000000E+00    1.2500000E+01    3.1250000E+01
               7.9849197E+01    7.5886803E+01 228 113
s4900510w2 -1
            skin 0 0 1 0
               1.0000000E+00    1.2500000E+01    3.1250000E+01
               8.4649200E+01    8.2881363E+01 228 112
s4900521w1 -1
            skin 0 0 1 0
               1.0000000E+00    1.2500000E+01    3.1250000E+01
               7.0142403E+01    4.4142963E+01 248 138
s4900521w2 -1
            skin 0 0 1 0
               1.0000000E+00    1.2500000E+01    3.1250000E+01
               5.5452003E+01    3.5975285E+01 250 138
s4900521w3 -1
            skin 0 0 1 0
               1.0000000E+00    1.2500000E+01    3.1250000E+01
               6.0024002E+01    3.3475922E+01 250 138
s4900521w4 -1
            skin 0 0 1 0
               1.0000000E+00    1.2500000E+01    3.1250000E+01
               7.0142403E+01    6.3741604E+01 248 138
s4900558w1 -1
            skin 0 0 1 0
               1.0000000E+00    1.2500000E+01    3.1250000E+01
              -4.7257999E+01   -5.6341038E+01 369 160
s4900558w2 -1
            skin 0 0 1 0
               1.0000000E+00    1.2500000E+01    3.1250000E+01
              -4.8172398E+01   -5.9449997E+01 369 160
s4900558w3 -1
            skin 0 0 1 0
               1.0000000E+00    1.2500000E+01    3.1250000E+01
              -4.7257999E+01   -9.2368401E+01 369 160
s4900558w4 -1
            skin 0 0 1 0
               1.0000000E+00    1.2500000E+01    3.1250000E+01
              -4.7257999E+01   -9.2368401E+01 369 160
s4900570w1 -1
            skin 0 0 1 0
               1.0000000E+00    1.2500000E+01    3.1250000E+01
               7.5072006E+01    5.9466244E+01 235 120
s4900577w1 -1
            skin 0 0 1 0
               1.0000000E+00    1.2500000E+01    3.1250000E+01
               2.9760000E+01    2.4365042E+01 287 160
s4900577w2 -1
            skin 0 0 1 0
               1.0000000E+00    1.2500000E+01    3.1250000E+01
               2.8540802E+01    2.4365042E+01 287 160
s4900577w3 -1
            skin 0 0 1 0
               1.0000000E+00    1.2500000E+01    3.1250000E+01
               2.9455200E+01    2.4365042E+01 287 160
s4900577w4 -1
            skin 0 0 1 0
               1.0000000E+00    1.2500000E+01    3.1250000E+01
               2.9760000E+01    2.0920801E+01 287 160
s4900608w1 -1
            skin 0 0 1 0
               1.0000000E+00    1.2500000E+01    3.1250000E+01
               8.6832001E+01    7.7550835E+01 227 111
s4900611w1 -1
            skin 0 0 1 0
               1.0000000E+00    1.2500000E+01    3.1250000E+01
               3.6487999E+01    3.4739998E+01 238 113
s4900611w2 -1
            skin 0 0 1 0
               1.0000000E+00    1.2500000E+01    3.1250000E+01
               6.2091599E+01    4.0603195E+01 234 117
s4900620w1 -1
            skin 0 0 1 0
               1.0000000E+00    1.2500000E+01    3.1250000E+01
               2.9759998E+00   -7.0824003E+00 343 99
s4900629w1 -1
            skin 0 0 1 0
               1.0000000E+00    1.2500000E+01    3.1250000E+01
               6.3852005E+00    2.1180003E+00 329 96
s4900629w2 -1
            skin 0 0 1 0
               1.0000000E+00    1.2500000E+01    3.1250000E+01
               6.3852005E+00    2.1180003E+00 329 96
s4900630w1 -1
            skin 0 0 1 0
               1.0000000E+00    1.2500000E+01    3.1250000E+01
               1.0301200E+01   -9.9070396E+00 341 97
s4900630w2 -1
            skin 0 0 1 0
               1.0000000E+00    1.2500000E+01    3.1250000E+01
               9.4341202E+01    7.8796402E+01 340 98
s4900630w3 -1
            skin 0 0 1 0
               1.0000000E+00    1.2500000E+01    3.1250000E+01
               1.0301200E+01   -5.2435999E+00 341 97
s4900634w1 -1
            skin 0 0 1 0
               1.0000000E+00    1.2500000E+01    3.1250000E+01
               1.0301200E+01   -5.2435999E+00 341 97
s4900637w1 -1
            skin 0 0 1 0
               1.0000000E+00    1.2500000E+01    3.1250000E+01
               2.7360001E+00   -7.3224001E+00 344 100
s4900637w2 -1
            skin 0 0 1 0
               1.0000000E+00    1.2500000E+01    3.1250000E+01
               2.7360001E+00   -1.9849680E+01 344 100
s4900637w3 -1
            skin 0 0 1 0
               1.0000000E+00    1.2500000E+01    3.1250000E+01
               1.4885600E+02    1.3879761E+02 344 98
s4900639w1 -1
            skin 0 0 1 0
               1.0000000E+00    1.2500000E+01    3.1250000E+01
               8.0520040E-01   -3.4619997E+00 335 94
s4900639w2 -1
            skin 0 0 1 0
               1.0000000E+00    1.2500000E+01    3.1250000E+01
               8.0520040E-01   -3.4619997E+00 335 94
s4900640w1 -1
            skin 0 0 1 0
               1.0000000E+00    1.2500000E+01    3.1250000E+01
               7.8728004E+00   -8.5559196E+00 338 95
s4900640w2 -1
            skin 0 0 1 0
               1.0000000E+00    1.2500000E+01    3.1250000E+01
              -3.4047997E+00   -7.6719995E+00 338 95
s4900641w1 -1
            skin 0 0 1 0
               1.0000000E+00    1.2500000E+01    3.1250000E+01
               4.8551998E+00   -1.6541759E+01 332 94
s4900641w2 -1
            skin 0 0 1 0
               1.0000000E+00    1.2500000E+01    3.1250000E+01
               4.8551998E+00    5.8799964E-01 332 94
s4900641w3 -1
            skin 0 0 1 0
               1.0000000E+00    1.2500000E+01    3.1250000E+01
               8.0520040E-01   -5.7175198E+00 335 94
s4900641w4 -1
            skin 0 0 1 0
               1.0000000E+00    1.2500000E+01    3.1250000E+01
              -3.4619997E+00   -4.6507196E+00 335 94
s4900641w5 -1
            skin 0 0 1 0
               1.0000000E+00    1.2500000E+01    3.1250000E+01
               8.0520040E-01   -3.4619997E+00 335 94
s4900644w1 -1
            skin 0 0 1 0
               1.0000000E+00    1.2500000E+01    3.1250000E+01
               1.7854000E+01    1.3282001E+01 361 85
s4900646w1 -1
            skin 0 0 1 0
               1.0000000E+00    1.2500000E+01    3.1250000E+01
               4.1100403E+01   -7.6980782E+00 281 171
s4900646w2 -1
            skin 0 0 1 0
               1.0000000E+00    1.2500000E+01    3.1250000E+01
               3.1042002E+01   -7.6980782E+00 281 171
s4900665w1 -1
            skin 0 0 1 0
               1.0000000E+00    1.2500000E+01    3.1250000E+01
               1.1226000E+01    6.6539998E+00 296 158
s4900665w2 -1
            skin 0 0 1 0
               1.0000000E+00    1.2500000E+01    3.1250000E+01
               1.1226000E+01    6.6539998E+00 296 158
s4900684w1 -1
            skin 0 0 1 0
               1.0000000E+00    1.2500000E+01    3.1250000E+01
               9.6147995E+00   -1.0599000E+02 374 151
s4900686w1 -1
            skin 0 0 1 0
               1.0000000E+00    1.2500000E+01    3.1250000E+01
               1.7194400E+02    1.5444847E+02 232 125
s4900703w1 -1
            skin 0 0 1 0
               1.0000000E+00    1.2500000E+01    3.1250000E+01
               3.2834801E+01   -3.8488400E+01 360 154
s4900704w1 -1
            skin 0 0 1 0
               1.0000000E+00    1.2500000E+01    3.1250000E+01
               1.9690001E+01   -3.5295918E+01 278 174
s4900705w1 -1
            skin 0 0 1 0
               1.0000000E+00    1.2500000E+01    3.1250000E+01
               6.5954002E+01    1.3833203E+01 254 147
s4900707w1 -1
            skin 0 0 1 0
               1.0000000E+00    1.2500000E+01    3.1250000E+01
               1.2424002E+01   -2.3511919E+01 380 162
s4900707w2 -1
            skin 0 0 1 0
               1.0000000E+00    1.2500000E+01    3.1250000E+01
               1.3596400E+01   -1.7462719E+01 379 162
s4900707w3 -1
            skin 0 0 1 0
               1.0000000E+00    1.2500000E+01    3.1250000E+01
              -8.6539993E+00   -4.8095119E+01 379 162
s4900710w1 -1
            skin 0 0 1 0
               1.0000000E+00    1.2500000E+01    3.1250000E+01
               3.6674801E+01   -7.9454002E+01 376 157
s4900710w2 -1
            skin 0 0 1 0
               1.0000000E+00    1.2500000E+01    3.1250000E+01
               3.6674801E+01   -3.0777439E+01 376 157
s4900710w3 -1
            skin 0 0 1 0
               1.0000000E+00    1.2500000E+01    3.1250000E+01
               3.6674801E+01   -7.9454002E+01 376 157
s4900719w1 -1
            skin 0 0 1 0
               1.0000000E+00    1.2500000E+01    3.1250000E+01
               2.0768000E+01    5.5279989E+00 305 148
s4900719w2 -1
            skin 0 0 1 0
               1.0000000E+00    1.2500000E+01    3.1250000E+01
               2.0768000E+01    5.5279989E+00 305 148
s4900719w3 -1
            skin 0 0 1 0
               1.0000000E+00    1.2500000E+01    3.1250000E+01
               2.2398001E+01    7.1580000E+00 306 148
s4900736w1 -1
            skin 0 0 1 0
               1.0000000E+00    1.2500000E+01    3.1250000E+01
               8.8058395E+01    7.6506477E+01 224 116
s4900736w2 -1
            skin 0 0 1 0
               1.0000000E+00    1.2500000E+01    3.1250000E+01
               1.1400840E+02    1.0699800E+02 224 117
s4900745w1 -1
            skin 0 0 1 0
               1.0000000E+00    1.2500000E+01    3.1250000E+01
               2.5338799E+01    3.6675191E+00 333 131
s4900745w2 -1
            skin 0 0 1 0
               1.0000000E+00    1.2500000E+01    3.1250000E+01
               1.9242800E+01    4.8867192E+00 333 131
s4900745w3 -1
            skin 0 0 1 0
               1.0000000E+00    1.2500000E+01    3.1250000E+01
               2.5338799E+01    1.3146799E+01 333 131
s4900748w1 -1
            skin 0 0 1 0
               1.0000000E+00    1.2500000E+01    3.1250000E+01
              -7.9443998E+00   -3.1231119E+01 349 101
s4900748w2 -1
            skin 0 0 1 0
               1.0000000E+00    1.2500000E+01    3.1250000E+01
              -3.5999978E-01   -2.4561119E+01 349 100
s4900748w3 -1
            skin 0 0 1 0
               1.0000000E+00    1.2500000E+01    3.1250000E+01
              -7.9443998E+00   -1.4040400E+01 349 101
s4900748w4 -1
            skin 0 0 1 0
               1.0000000E+00    1.2500000E+01    3.1250000E+01
              -7.9443998E+00   -1.4040400E+01 349 101
s4900789w1 -1
            skin 0 0 1 0
               1.0000000E+00    1.2500000E+01    3.1250000E+01
               6.8400002E+01    1.8600000E+01 355 154
s4900789w2 -1
            skin 0 0 1 0
               1.0000000E+00    1.2500000E+01    3.1250000E+01
               6.8400002E+01    1.8600000E+01 355 154
s4900789w3 -1
            skin 0 0 1 0
               1.0000000E+00    1.2500000E+01    3.1250000E+01
               6.8400002E+01    1.8600000E+01 355 154
s4900793w3 -1
            skin 0 0 1 0
               1.0000000E+00    1.2500000E+01    3.1250000E+01
              -7.2718002E+01   -1.1782840E+02 370 156
s4900795w1 -1
            skin 0 0 1 0
               1.0000000E+00    1.2500000E+01    3.1250000E+01
               7.6668800E+01    3.0180000E+01 279 179
s4900844w1 -1
            skin 0 0 1 0
               1.0000000E+00    1.2500000E+01    3.1250000E+01
               3.2884003E+01    9.5058413E+00 271 151
s4900844w2 -1
            skin 0 0 1 0
               1.0000000E+00    1.2500000E+01    3.1250000E+01
               3.5627201E+01    1.5053202E+01 271 151
s4900844w3 -1
            skin 0 0 1 0
               1.0000000E+00    1.2500000E+01    3.1250000E+01
               3.2884003E+01   -3.6038342E+01 271 151
s4900847w1 -1
            skin 0 0 1 0
               1.0000000E+00    1.2500000E+01    3.1250000E+01
               5.4000095E-02   -9.7910395E+00 353 98
s4900859w1 -1
            skin 0 0 1 0
               1.0000000E+00    1.2500000E+01    3.1250000E+01
               1.7768402E+01   -3.0847198E+01 364 158
s4900859w2 -1
            skin 0 0 1 0
               1.0000000E+00    1.2500000E+01    3.1250000E+01
               1.0159832E-01   -1.5016481E+01 363 158
s4900859w3 -1
            skin 0 0 1 0
               1.0000000E+00    1.2500000E+01    3.1250000E+01
               1.0159832E-01   -1.0454000E+02 363 158
s4900859w4 -1
            skin 0 0 1 0
               1.0000000E+00    1.2500000E+01    3.1250000E+01
               1.7768402E+01   -1.0933320E+02 364 158
s4900893w1 -1
            skin 0 0 1 0
               1.0000000E+00    1.2500000E+01    3.1250000E+01
               8.5439995E+01    7.3248001E+01 214 112
s4900893w2 -1
            skin 0 0 1 0
               1.0000000E+00    1.2500000E+01    3.1250000E+01
               8.5439995E+01    7.3248001E+01 214 112
s4900897w1 -1
            skin 0 0 1 0
               1.0000000E+00    1.2500000E+01    3.1250000E+01
              -1.0480401E+01   -5.0510002E+01 308 157
s4900897w2 -1
            skin 0 0 1 0
               1.0000000E+00    1.2500000E+01    3.1250000E+01
              -1.2503991E+00   -4.1280003E+01 308 160
s4900897w3 -1
            skin 0 0 1 0
               1.0000000E+00    1.2500000E+01    3.1250000E+01
              -3.6003995E+00   -4.3630001E+01 308 159
s4900897w4 -1
            skin 0 0 1 0
               1.0000000E+00    1.2500000E+01    3.1250000E+01
              -3.6003995E+00   -4.3630001E+01 308 159
s4900897w5 -1
            skin 0 0 1 0
               1.0000000E+00    1.2500000E+01    3.1250000E+01
              -4.0404000E+00   -4.4070000E+01 309 159
s4900897w6 -1
            skin 0 0 1 0
               1.0000000E+00    1.2500000E+01    3.1250000E+01
              -4.0404000E+00   -4.4070000E+01 309 159
s4900897w7 -1
            skin 0 0 1 0
               1.0000000E+00    1.2500000E+01    3.1250000E+01
              -1.2503991E+00   -4.1280003E+01 308 160
s4900897w8 -1
            skin 0 0 1 0
               1.0000000E+00    1.2500000E+01    3.1250000E+01
              -1.2503991E+00   -4.1280003E+01 308 160
s4900904w1 -1
            skin 0 0 1 0
               1.0000000E+00    1.2500000E+01    3.1250000E+01
               2.8520000E+01   -4.1280003E+01 308 160
s4900904w2 -1
            skin 0 0 1 0
               1.0000000E+00    1.2500000E+01    3.1250000E+01
              -1.2503991E+00   -4.1280003E+01 308 160
s4900904w3 -1
            skin 0 0 1 0
               1.0000000E+00    1.2500000E+01    3.1250000E+01
              -1.2503991E+00   -4.1280003E+01 308 160
s4900916w1 -1
            skin 0 0 1 0
               1.0000000E+00    1.2500000E+01    3.1250000E+01
               1.3297999E+01    4.4587998E+00 298 149
s4900935w1 -1
            skin 0 0 1 0
               1.0000000E+00    1.2500000E+01    3.1250000E+01
               5.8072800E+01    3.2865841E+01 254 137
s4900935w2 -1
            skin 0 0 1 0
               1.0000000E+00    1.2500000E+01    3.1250000E+01
               6.4112007E+01    3.5796085E+01 255 139
s4900935w3 -1
            skin 0 0 1 0
               1.0000000E+00    1.2500000E+01    3.1250000E+01
               6.3502403E+01    3.6253284E+01 255 139
s4900935w4 -1
            skin 0 0 1 0
               1.0000000E+00    1.2500000E+01    3.1250000E+01
               6.8042801E+01    3.6038799E+01 255 136
s4900935w5 -1
            skin 0 0 1 0
               1.0000000E+00    1.2500000E+01    3.1250000E+01
               5.8072800E+01    2.6068800E+01 254 137
s4900936w1 -1
            skin 0 0 1 0
               1.0000000E+00    1.2500000E+01    3.1250000E+01
               1.2280360E+02    1.0774648E+02 367 129
s4900936w2 -1
            skin 0 0 1 0
               1.0000000E+00    1.2500000E+01    3.1250000E+01
               1.2920441E+02    1.2633929E+02 367 129
s4900936w3 -1
            skin 0 0 1 0
               1.0000000E+00    1.2500000E+01    3.1250000E+01
               1.5640359E+02    1.2592359E+02 367 130
s4900936w4 -1
            skin 0 0 1 0
               1.0000000E+00    1.2500000E+01    3.1250000E+01
               1.6774361E+02    1.3726361E+02 369 130
s4900936w5 -1
            skin 0 0 1 0
               1.0000000E+00    1.2500000E+01    3.1250000E+01
               1.2280360E+02    9.2323601E+01 367 129
s4900943w1 -1
            skin 0 0 1 0
               1.0000000E+00    1.2500000E+01    3.1250000E+01
               1.7301801E+02    1.3491800E+02 361 121
s4900943w2 -1
            skin 0 0 1 0
               1.0000000E+00    1.2500000E+01    3.1250000E+01
               9.0818001E+01    5.2718002E+01 361 122
s4900943w3 -1
            skin 0 0 1 0
               1.0000000E+00    1.2500000E+01    3.1250000E+01
               1.4607800E+02    1.0797800E+02 362 122
s4900946w1 -1
            skin 0 0 1 0
               1.0000000E+00    1.2500000E+01    3.1250000E+01
               1.9352798E+01    9.7211189E+00 269 152
s4900946w2 -1
            skin 0 0 1 0
               1.0000000E+00    1.2500000E+01    3.1250000E+01
               1.9352798E+01    1.3256799E+01 269 152
s4900968w1 -1
            skin 0 0 1 0
               1.0000000E+00    1.2500000E+01    3.1250000E+01