pcf
* control data
             restart          estimation
       412       212        10         0         4
         1         1              single               point
   2.000000E+01  -3.000000E+00   3.000000E-01   1.000000E-02        -7
   1.000000E+01   1.000000E+01   1.000000E-03
   1.000000E-01
        30   1.000000E-02         3         3   1.000000E-02         3
         0         0         0
* singular value decomposition
         1
  10000000    1.000000E-06
1
* parameter groups
upw_ks                 relative              3.0000000000E-02      0.0 switch                2.0000000000E+00      parabolic             1.0000000000E-05      5.0000000000E-01      smaller              
uzf_surfk              relative              3.0000000000E-02      0.0 switch                2.0000000000E+00      parabolic             1.0000000000E-05      5.0000000000E-01      smaller              
uzf_vks                relative              3.0000000000E-02      0.0 switch                2.0000000000E+00      parabolic             1.0000000000E-05      5.0000000000E-01      smaller              
uzf_finf               relative              3.0000000000E-02      0.0 switch                2.0000000000E+00      parabolic             1.0000000000E-05      5.0000000000E-01      smaller              
sfr_ks                 relative              3.0000000000E-02      0.0 switch                2.0000000000E+00      parabolic             1.0000000000E-05      5.0000000000E-01      smaller              
upw_vka                relative              3.0000000000E-02      0.0 switch                2.0000000000E+00      parabolic             1.0000000000E-05      5.0000000000E-01      smaller              
sfr_spil               relative              3.0000000000E-02      0.0 switch                2.0000000000E+00      parabolic             1.0000000000E-05      5.0000000000E-01      smaller              
lak_cd                 relative              3.0000000000E-02      0.0 switch                2.0000000000E+00      parabolic             1.0000000000E-05      5.0000000000E-01      smaller              
well_rubber_dam        relative              3.0000000000E-02      0.0 switch                2.0000000000E+00      parabolic             1.0000000000E-05      5.0000000000E-01      smaller              
uzf_pet                relative              3.0000000000E-02      0.0 switch                2.0000000000E+00      parabolic             1.0000000000E-05      5.0000000000E-01      smaller              
* parameter data
finf_1	fixed	factor	0.4830353	1.00E-02	1.00E+00	uzf_finf	1.00E+00	0.00E+00	1
finf_10	fixed	factor	0.472504655	1.00E-02	1.00E+00	uzf_finf	1.00E+00	0.00E+00	1
finf_11	fixed	factor	0.472504652	1.00E-02	1.00E+00	uzf_finf	1.00E+00	0.00E+00	1
finf_12	fixed	factor	0.472504652	1.00E-02	1.00E+00	uzf_finf	1.00E+00	0.00E+00	1
finf_13	fixed	factor	0.472504625	1.00E-02	1.00E+00	uzf_finf	1.00E+00	0.00E+00	1
finf_14	fixed	factor	0.483035302	1.00E-02	1.00E+00	uzf_finf	1.00E+00	0.00E+00	1
finf_15	fixed	factor	0.4830353	1.00E-02	1.00E+00	uzf_finf	1.00E+00	0.00E+00	1
finf_16	fixed	factor	0.4830353	1.00E-02	1.00E+00	uzf_finf	1.00E+00	0.00E+00	1
finf_17	fixed	factor	0.483035296	1.00E-02	1.00E+00	uzf_finf	1.00E+00	0.00E+00	1
finf_18	fixed	factor	0.4830353	1.00E-02	1.00E+00	uzf_finf	1.00E+00	0.00E+00	1
finf_19	fixed	factor	0.483035302	1.00E-02	1.00E+00	uzf_finf	1.00E+00	0.00E+00	1
finf_2	fixed	factor	0.483035299	1.00E-02	1.00E+00	uzf_finf	1.00E+00	0.00E+00	1
finf_20	fixed	factor	0.528461941	1.00E-02	1.00E+00	uzf_finf	1.00E+00	0.00E+00	1
finf_21	fixed	factor	0.483035301	1.00E-02	1.00E+00	uzf_finf	1.00E+00	0.00E+00	1
finf_22	fixed	factor	0.483035304	1.00E-02	1.00E+00	uzf_finf	1.00E+00	0.00E+00	1
finf_3	fixed	factor	0.483035305	1.00E-02	1.00E+00	uzf_finf	1.00E+00	0.00E+00	1
finf_4	fixed	factor	0.410580006	1.00E-02	1.00E+00	uzf_finf	1.00E+00	0.00E+00	1
finf_5	fixed	factor	0.410580006	1.00E-02	1.00E+00	uzf_finf	1.00E+00	0.00E+00	1
finf_6	fixed	factor	0.483035299	1.00E-02	1.00E+00	uzf_finf	1.00E+00	0.00E+00	1
finf_7	fixed	factor	0.472504653	1.00E-02	1.00E+00	uzf_finf	1.00E+00	0.00E+00	1
finf_8	fixed	factor	0.47250465	1.00E-02	1.00E+00	uzf_finf	1.00E+00	0.00E+00	1
finf_9	fixed	factor	0.472504648	1.00E-02	1.00E+00	uzf_finf	1.00E+00	0.00E+00	1
ks_1	log	factor	2.384578948	1.00E-05	5.00E+02	upw_ks	1.00E+00	0.00E+00	1
ks_10	log	factor	1.834414964	1.00E-05	5.00E+02	upw_ks	1.00E+00	0.00E+00	1
ks_100	log	factor	6.47E-05	1.00E-06	5.00E+02	upw_ks	1.00E+00	0.00E+00	1
ks_101	log	factor	6.92E-04	1.00E-05	5.00E+02	upw_ks	1.00E+00	0.00E+00	1
ks_102	log	factor	7.40E-05	1.00E-06	5.00E+02	upw_ks	1.00E+00	0.00E+00	1
ks_103	log	factor	3.44E-04	1.00E-05	5.00E+02	upw_ks	1.00E+00	0.00E+00	1
ks_104	log	factor	9.68E-06	1.00E-06	5.00E+02	upw_ks	1.00E+00	0.00E+00	1
ks_105	log	factor	9.78E-06	1.00E-06	5.00E+02	upw_ks	1.00E+00	0.00E+00	1
ks_106	log	factor	1.45E-04	1.00E-05	5.00E+02	upw_ks	1.00E+00	0.00E+00	1
ks_107	log	factor	2.51E-04	1.00E-05	5.00E+02	upw_ks	1.00E+00	0.00E+00	1
ks_108	log	factor	4.494185529	1.00E-05	5.00E+02	upw_ks	1.00E+00	0.00E+00	1
ks_109	log	factor	7.577012191	1.00E-05	5.00E+02	upw_ks	1.00E+00	0.00E+00	1
ks_11	log	factor	0.347788538	1.00E-05	5.00E+02	upw_ks	1.00E+00	0.00E+00	1
ks_110	log	factor	3.813475899	1.00E-05	5.00E+02	upw_ks	1.00E+00	0.00E+00	1
ks_111	log	factor	8.911853625	1.00E-05	5.00E+02	upw_ks	1.00E+00	0.00E+00	1
ks_112	log	factor	4.62197	1.00E-05	5.00E+02	upw_ks	1.00E+00	0.00E+00	1
ks_113	log	factor	0.070436089	1.00E-05	5.00E+02	upw_ks	1.00E+00	0.00E+00	1
ks_114	log	factor	9.762460314	1.00E-05	5.00E+02	upw_ks	1.00E+00	0.00E+00	1
ks_115	log	factor	6.762020287	1.00E-05	5.00E+02	upw_ks	1.00E+00	0.00E+00	1
ks_116	log	factor	0.390227079	1.00E-05	5.00E+02	upw_ks	1.00E+00	0.00E+00	1
ks_117	log	factor	13.89639004	1.00E-05	5.00E+02	upw_ks	1.00E+00	0.00E+00	1
ks_118	log	factor	1.985967604	1.00E-05	5.00E+02	upw_ks	1.00E+00	0.00E+00	1
ks_119	log	factor	10.6775431	1.00E-05	5.00E+02	upw_ks	1.00E+00	0.00E+00	1
ks_12	log	factor	9.269048276	1.00E-05	5.00E+02	upw_ks	1.00E+00	0.00E+00	1
ks_120	log	factor	0.122009253	1.00E-05	5.00E+02	upw_ks	1.00E+00	0.00E+00	1
ks_121	log	factor	2.302378967	1.00E-05	5.00E+02	upw_ks	1.00E+00	0.00E+00	1
ks_122	log	factor	42.2704031	1.00E-05	5.00E+02	upw_ks	1.00E+00	0.00E+00	1
ks_123	log	factor	9.666465568	1.00E-05	5.00E+02	upw_ks	1.00E+00	0.00E+00	1
ks_124	log	factor	2.123296531	1.00E-05	5.00E+02	upw_ks	1.00E+00	0.00E+00	1
ks_125	log	factor	29.80543003	1.00E-05	5.00E+02	upw_ks	1.00E+00	0.00E+00	1
ks_126	log	factor	2.65E+02	1.00E-05	5.00E+02	upw_ks	1.00E+00	0.00E+00	1
ks_127	log	factor	0.928576922	1.00E-05	5.00E+02	upw_ks	1.00E+00	0.00E+00	1
ks_128	log	factor	4.686478152	1.00E-05	5.00E+02	upw_ks	1.00E+00	0.00E+00	1
ks_129	log	factor	6.546658832	1.00E-05	5.00E+02	upw_ks	1.00E+00	0.00E+00	1
ks_13	log	factor	0.72474238	1.00E-05	5.00E+02	upw_ks	1.00E+00	0.00E+00	1
ks_130	log	factor	5.558555067	1.00E-05	5.00E+02	upw_ks	1.00E+00	0.00E+00	1
ks_131	log	factor	2.01E-04	1.00E-05	5.00E+02	upw_ks	1.00E+00	0.00E+00	1
ks_132	log	factor	1.99E-04	1.00E-05	5.00E+02	upw_ks	1.00E+00	0.00E+00	1
ks_133	log	factor	2.01E-04	1.00E-05	5.00E+02	upw_ks	1.00E+00	0.00E+00	1
ks_134	log	factor	0.027201351	1.00E-05	5.00E+02	upw_ks	1.00E+00	0.00E+00	1
ks_135	log	factor	1.59E-04	1.00E-05	5.00E+02	upw_ks	1.00E+00	0.00E+00	1
ks_136	log	factor	2.44E-04	1.00E-05	5.00E+02	upw_ks	1.00E+00	0.00E+00	1
ks_137	log	factor	3.85E-03	1.00E-05	5.00E+02	upw_ks	1.00E+00	0.00E+00	1
ks_138	log	factor	6.740150671	1.00E-05	5.00E+02	upw_ks	1.00E+00	0.00E+00	1
ks_139	log	factor	2.29E-04	1.00E-05	5.00E+02	upw_ks	1.00E+00	0.00E+00	1
ks_14	log	factor	4.356080479	1.00E-05	5.00E+02	upw_ks	1.00E+00	0.00E+00	1
ks_140	log	factor	15.00653372	1.00E-05	5.00E+02	upw_ks	1.00E+00	0.00E+00	1
ks_141	log	factor	1.98E-04	1.00E-05	5.00E+02	upw_ks	1.00E+00	0.00E+00	1
ks_142	log	factor	2.00E-04	1.00E-05	5.00E+02	upw_ks	1.00E+00	0.00E+00	1
ks_143	log	factor	1.39E-03	1.00E-05	5.00E+02	upw_ks	1.00E+00	0.00E+00	1
ks_144	log	factor	1.049060796	1.00E-05	5.00E+02	upw_ks	1.00E+00	0.00E+00	1
ks_145	log	factor	29.28479249	1.00E-05	5.00E+02	upw_ks	1.00E+00	0.00E+00	1
ks_146	log	factor	5.899950672	1.00E-05	5.00E+02	upw_ks	1.00E+00	0.00E+00	1
ks_147	log	factor	2.249067878	1.00E-05	5.00E+02	upw_ks	1.00E+00	0.00E+00	1
ks_148	log	factor	6.135359108	1.00E-05	5.00E+02	upw_ks	1.00E+00	0.00E+00	1
ks_149	log	factor	2.66E-04	1.00E-05	5.00E+02	upw_ks	1.00E+00	0.00E+00	1
ks_15	log	factor	1.16277441	1.00E-05	5.00E+02	upw_ks	1.00E+00	0.00E+00	1
ks_150	log	factor	7.63013635	1.00E-05	5.00E+02	upw_ks	1.00E+00	0.00E+00	1
ks_151	log	factor	6.242376904	1.00E-05	5.00E+02	upw_ks	1.00E+00	0.00E+00	1
ks_152	log	factor	0.125561229	1.00E-05	5.00E+02	upw_ks	1.00E+00	0.00E+00	1
ks_153	log	factor	48.56183504	1.00E-05	5.00E+02	upw_ks	1.00E+00	0.00E+00	1
ks_154	log	factor	31.06620151	1.00E-05	5.00E+02	upw_ks	1.00E+00	0.00E+00	1
ks_155	log	factor	1.75E-04	1.00E-05	5.00E+02	upw_ks	1.00E+00	0.00E+00	1
ks_156	log	factor	0.185536614	1.00E-05	5.00E+02	upw_ks	1.00E+00	0.00E+00	1
ks_157	log	factor	0.180144654	1.00E-05	5.00E+02	upw_ks	1.00E+00	0.00E+00	1
ks_158	log	factor	0.641564342	1.00E-05	5.00E+02	upw_ks	1.00E+00	0.00E+00	1
ks_159	log	factor	0.026511463	1.00E-05	5.00E+02	upw_ks	1.00E+00	0.00E+00	1
ks_16	log	factor	2.34E+02	1.00E-05	5.00E+02	upw_ks	1.00E+00	0.00E+00	1
ks_160	log	factor	1.098510189	1.00E-05	5.00E+02	upw_ks	1.00E+00	0.00E+00	1
ks_161	log	factor	5.00E+02	1.00E-05	5.00E+02	upw_ks	1.00E+00	0.00E+00	1
ks_162	log	factor	0.196600728	1.00E-05	5.00E+02	upw_ks	1.00E+00	0.00E+00	1
ks_163	log	factor	0.06981046	1.00E-05	5.00E+02	upw_ks	1.00E+00	0.00E+00	1
ks_164	log	factor	0.056357433	1.00E-05	5.00E+02	upw_ks	1.00E+00	0.00E+00	1
ks_165	log	factor	7.134650037	1.00E-05	5.00E+02	upw_ks	1.00E+00	0.00E+00	1
ks_166	log	factor	0.015612046	1.00E-05	5.00E+02	upw_ks	1.00E+00	0.00E+00	1
ks_167	log	factor	0.024651277	1.00E-05	5.00E+02	upw_ks	1.00E+00	0.00E+00	1
ks_168	log	factor	0.043123611	1.00E-05	5.00E+02	upw_ks	1.00E+00	0.00E+00	1
ks_169	log	factor	2.31E-04	1.00E-05	5.00E+02	upw_ks	1.00E+00	0.00E+00	1
ks_17	log	factor	1.719886494	1.00E-05	5.00E+02	upw_ks	1.00E+00	0.00E+00	1
ks_170	log	factor	1.51E-03	1.00E-05	5.00E+02	upw_ks	1.00E+00	0.00E+00	1
ks_171	log	factor	0.344978812	1.00E-05	5.00E+02	upw_ks	1.00E+00	0.00E+00	1
ks_172	log	factor	0.020337652	1.00E-05	5.00E+02	upw_ks	1.00E+00	0.00E+00	1
ks_173	log	factor	5.84E-03	1.00E-05	5.00E+02	upw_ks	1.00E+00	0.00E+00	1
ks_174	log	factor	6.055532626	1.00E-05	5.00E+02	upw_ks	1.00E+00	0.00E+00	1
ks_175	log	factor	0.129349953	1.00E-05	5.00E+02	upw_ks	1.00E+00	0.00E+00	1
ks_176	log	factor	1.43E-03	1.00E-05	5.00E+02	upw_ks	1.00E+00	0.00E+00	1
ks_177	log	factor	1.156359455	1.00E-05	5.00E+02	upw_ks	1.00E+00	0.00E+00	1
ks_178	log	factor	2.00E-04	1.00E-05	5.00E+02	upw_ks	1.00E+00	0.00E+00	1
ks_179	log	factor	0.570999261	1.00E-05	5.00E+02	upw_ks	1.00E+00	0.00E+00	1
ks_18	log	factor	2.453396932	1.00E-05	5.00E+02	upw_ks	1.00E+00	0.00E+00	1
ks_180	log	factor	1.86E-05	1.00E-06	5.00E+02	upw_ks	1.00E+00	0.00E+00	1
ks_181	log	factor	0.012413382	1.00E-05	5.00E+02	upw_ks	1.00E+00	0.00E+00	1
ks_182	log	factor	5.241527651	1.00E-05	5.00E+02	upw_ks	1.00E+00	0.00E+00	1
ks_183	log	factor	0.996227807	1.00E-05	5.00E+02	upw_ks	1.00E+00	0.00E+00	1
ks_184	log	factor	3.34E-04	1.00E-05	5.00E+02	upw_ks	1.00E+00	0.00E+00	1
ks_185	log	factor	9.54E-05	1.00E-06	5.00E+02	upw_ks	1.00E+00	0.00E+00	1
ks_186	log	factor	9.81E-05	1.00E-06	5.00E+02	upw_ks	1.00E+00	0.00E+00	1
ks_187	log	factor	1.09E-04	1.00E-05	5.00E+02	upw_ks	1.00E+00	0.00E+00	1
ks_188	log	factor	3.57E-04	1.00E-05	5.00E+02	upw_ks	1.00E+00	0.00E+00	1
ks_189	log	factor	1.15E-04	1.00E-05	5.00E+02	upw_ks	1.00E+00	0.00E+00	1
ks_19	log	factor	45.95380634	1.00E-05	5.00E+02	upw_ks	1.00E+00	0.00E+00	1
ks_190	log	factor	9.63E-06	1.00E-06	5.00E+02	upw_ks	1.00E+00	0.00E+00	1
ks_191	log	factor	1.01E-04	1.00E-05	5.00E+02	upw_ks	1.00E+00	0.00E+00	1
ks_192	log	factor	1.22E-04	1.00E-05	5.00E+02	upw_ks	1.00E+00	0.00E+00	1
ks_193	log	factor	1.45E-03	1.00E-05	5.00E+02	upw_ks	1.00E+00	0.00E+00	1
ks_194	log	factor	9.56E-06	1.00E-06	5.00E+02	upw_ks	1.00E+00	0.00E+00	1
ks_195	log	factor	6.73E-04	1.00E-05	5.00E+02	upw_ks	1.00E+00	0.00E+00	1
ks_196	log	factor	9.59E-06	1.00E-06	5.00E+02	upw_ks	1.00E+00	0.00E+00	1
ks_197	log	factor	8.18E-05	1.00E-05	5.00E+02	upw_ks	1.00E+00	0.00E+00	1
ks_198	log	factor	1.70E-04	1.00E-05	5.00E+02	upw_ks	1.00E+00	0.00E+00	1
ks_199	log	factor	1.08E-05	1.00E-06	5.00E+02	upw_ks	1.00E+00	0.00E+00	1
ks_2	log	factor	0.023023219	1.00E-05	5.00E+02	upw_ks	1.00E+00	0.00E+00	1
ks_20	log	factor	1.661255429	1.00E-05	5.00E+02	upw_ks	1.00E+00	0.00E+00	1
ks_200	log	factor	9.65E-06	1.00E-06	5.00E+02	upw_ks	1.00E+00	0.00E+00	1
ks_201	log	factor	9.56E-06	1.00E-06	5.00E+02	upw_ks	1.00E+00	0.00E+00	1
ks_202	log	factor	1.01E-04	1.00E-05	5.00E+02	upw_ks	1.00E+00	0.00E+00	1
ks_203	log	factor	1.14E-04	1.00E-05	5.00E+02	upw_ks	1.00E+00	0.00E+00	1
ks_204	log	factor	9.95E-05	1.00E-06	5.00E+02	upw_ks	1.00E+00	0.00E+00	1
ks_205	log	factor	1.03E-04	1.00E-05	5.00E+02	upw_ks	1.00E+00	0.00E+00	1
ks_206	log	factor	9.62E-06	1.00E-06	5.00E+02	upw_ks	1.00E+00	0.00E+00	1
ks_207	log	factor	1.02E-04	1.00E-05	5.00E+02	upw_ks	1.00E+00	0.00E+00	1
ks_208	log	factor	1.30E-05	1.00E-06	5.00E+02	upw_ks	1.00E+00	0.00E+00	1
ks_209	log	factor	2.64E-04	1.00E-05	5.00E+02	upw_ks	1.00E+00	0.00E+00	1
ks_21	log	factor	0.966005308	1.00E-05	5.00E+02	upw_ks	1.00E+00	0.00E+00	1
ks_210	log	factor	8.67E-05	1.00E-06	5.00E+02	upw_ks	1.00E+00	0.00E+00	1
ks_211	log	factor	8.80E-05	1.00E-06	5.00E+02	upw_ks	1.00E+00	0.00E+00	1
ks_212	log	factor	3.90E-05	1.00E-05	5.00E+02	upw_ks	1.00E+00	0.00E+00	1
ks_213	log	factor	9.55E-05	1.00E-06	5.00E+02	upw_ks	1.00E+00	0.00E+00	1
ks_214	log	factor	9.91E-05	1.00E-06	5.00E+02	upw_ks	1.00E+00	0.00E+00	1
ks_215	log	factor	9.80E-05	1.00E-06	5.00E+02	upw_ks	1.00E+00	0.00E+00	1
ks_216	log	factor	1.00E-04	1.00E-05	5.00E+02	upw_ks	1.00E+00	0.00E+00	1
ks_217	log	factor	5.40E-05	1.00E-06	5.00E+02	upw_ks	1.00E+00	0.00E+00	1
ks_218	log	factor	5.16E-05	1.00E-06	5.00E+02	upw_ks	1.00E+00	0.00E+00	1
ks_219	log	factor	1.04E-04	1.00E-05	5.00E+02	upw_ks	1.00E+00	0.00E+00	1
ks_22	log	factor	0.471352983	1.00E-05	5.00E+02	upw_ks	1.00E+00	0.00E+00	1
ks_220	log	factor	9.21E-05	1.00E-06	5.00E+02	upw_ks	1.00E+00	0.00E+00	1
ks_221	log	factor	1.25E-04	1.00E-05	5.00E+02	upw_ks	1.00E+00	0.00E+00	1
ks_222	log	factor	1.05E-04	1.00E-05	5.00E+02	upw_ks	1.00E+00	0.00E+00	1
ks_223	log	factor	1.01E-04	1.00E-05	5.00E+02	upw_ks	1.00E+00	0.00E+00	1
ks_224	log	factor	9.97E-05	1.00E-06	5.00E+02	upw_ks	1.00E+00	0.00E+00	1
ks_225	log	factor	9.78E-06	1.00E-06	5.00E+02	upw_ks	1.00E+00	0.00E+00	1
ks_226	log	factor	1.05E-04	1.00E-05	5.00E+02	upw_ks	1.00E+00	0.00E+00	1
ks_227	log	factor	8.65E-05	1.00E-06	5.00E+02	upw_ks	1.00E+00	0.00E+00	1
ks_228	log	factor	6.25E-05	1.00E-06	5.00E+02	upw_ks	1.00E+00	0.00E+00	1
ks_229	log	factor	3.90E-04	1.00E-05	5.00E+02	upw_ks	1.00E+00	0.00E+00	1
ks_23	log	factor	3.62E+02	1.00E-05	5.00E+02	upw_ks	1.00E+00	0.00E+00	1
ks_230	log	factor	1.47E-05	1.00E-06	5.00E+02	upw_ks	1.00E+00	0.00E+00	1
ks_231	log	factor	7.84E-05	1.00E-06	5.00E+02	upw_ks	1.00E+00	0.00E+00	1
ks_232	log	factor	3.54E-04	1.00E-05	5.00E+02	upw_ks	1.00E+00	0.00E+00	1
ks_233	log	factor	5.73E-05	1.00E-06	5.00E+02	upw_ks	1.00E+00	0.00E+00	1
ks_24	log	factor	0.049146047	1.00E-05	5.00E+02	upw_ks	1.00E+00	0.00E+00	1
ks_25	log	factor	0.083399021	1.00E-05	5.00E+02	upw_ks	1.00E+00	0.00E+00	1
ks_26	log	factor	5.00E+03	1.00E-05	5.00E+03	upw_ks	1.00E+00	0.00E+00	1
ks_27	log	factor	0.205892778	1.00E-05	5.00E+02	upw_ks	1.00E+00	0.00E+00	1
ks_28	log	factor	0.349053256	1.00E-05	5.00E+02	upw_ks	1.00E+00	0.00E+00	1
ks_29	log	factor	3.385110653	1.00E-05	5.00E+02	upw_ks	1.00E+00	0.00E+00	1
ks_3	log	factor	0.773116309	1.00E-05	5.00E+02	upw_ks	1.00E+00	0.00E+00	1
ks_30	log	factor	9.69E-06	1.00E-06	5.00E+02	upw_ks	1.00E+00	0.00E+00	1
ks_31	log	factor	2.724324833	1.00E-05	5.00E+02	upw_ks	1.00E+00	0.00E+00	1
ks_32	log	factor	1.89E-04	1.00E-05	5.00E+02	upw_ks	1.00E+00	0.00E+00	1
ks_33	log	factor	0.10202346	1.00E-05	5.00E+02	upw_ks	1.00E+00	0.00E+00	1
ks_34	log	factor	50.95179203	1.00E-05	5.00E+02	upw_ks	1.00E+00	0.00E+00	1
ks_35	log	factor	1.81E-04	1.00E-05	5.00E+02	upw_ks	1.00E+00	0.00E+00	1
ks_36	log	factor	4.84E-04	1.00E-05	5.00E+02	upw_ks	1.00E+00	0.00E+00	1
ks_37	log	factor	2.07E-04	1.00E-05	5.00E+02	upw_ks	1.00E+00	0.00E+00	1
ks_38	log	factor	0.080280023	1.00E-05	5.00E+02	upw_ks	1.00E+00	0.00E+00	1
ks_39	log	factor	1.95E-04	1.00E-05	5.00E+02	upw_ks	1.00E+00	0.00E+00	1
ks_4	log	factor	68.55299381	1.00E-05	5.00E+02	upw_ks	1.00E+00	0.00E+00	1
ks_40	log	factor	1.177758234	1.00E-05	5.00E+02	upw_ks	1.00E+00	0.00E+00	1
ks_41	log	factor	1.183044136	1.00E-05	5.00E+02	upw_ks	1.00E+00	0.00E+00	1
ks_42	log	factor	2.390468897	1.00E-05	5.00E+02	upw_ks	1.00E+00	0.00E+00	1
ks_43	log	factor	0.087356087	1.00E-05	5.00E+02	upw_ks	1.00E+00	0.00E+00	1
ks_44	log	factor	0.299291132	1.00E-05	5.00E+02	upw_ks	1.00E+00	0.00E+00	1
ks_45	log	factor	0.012023594	1.00E-05	5.00E+02	upw_ks	1.00E+00	0.00E+00	1
ks_46	log	factor	0.182525626	1.00E-05	5.00E+02	upw_ks	1.00E+00	0.00E+00	1
ks_47	log	factor	5.636418545	1.00E-05	5.00E+02	upw_ks	1.00E+00	0.00E+00	1
ks_48	log	factor	9.163236776	1.00E-05	5.00E+02	upw_ks	1.00E+00	0.00E+00	1
ks_49	log	factor	1.76E-04	1.00E-05	5.00E+02	upw_ks	1.00E+00	0.00E+00	1
ks_5	log	factor	1.59E+02	1.00E-05	5.00E+02	upw_ks	1.00E+00	0.00E+00	1
ks_50	log	factor	3.934187806	1.00E-05	5.00E+02	upw_ks	1.00E+00	0.00E+00	1
ks_51	log	factor	4.24E-05	1.00E-06	5.00E+02	upw_ks	1.00E+00	0.00E+00	1
ks_52	log	factor	3.36E-03	1.00E-05	5.00E+02	upw_ks	1.00E+00	0.00E+00	1
ks_53	log	factor	5.113382193	1.00E-05	5.00E+02	upw_ks	1.00E+00	0.00E+00	1
ks_54	log	factor	0.018594872	1.00E-05	5.00E+02	upw_ks	1.00E+00	0.00E+00	1
ks_55	log	factor	9.174030162	1.00E-05	5.00E+02	upw_ks	1.00E+00	0.00E+00	1
ks_56	log	factor	73.14436359	1.00E-05	5.00E+02	upw_ks	1.00E+00	0.00E+00	1
ks_57	log	factor	4.914907678	1.00E-05	5.00E+02	upw_ks	1.00E+00	0.00E+00	1
ks_58	log	factor	0.320067216	1.00E-05	5.00E+02	upw_ks	1.00E+00	0.00E+00	1
ks_59	log	factor	0.062929469	1.00E-05	5.00E+02	upw_ks	1.00E+00	0.00E+00	1
ks_6	log	factor	2.45E+02	1.00E-05	5.00E+02	upw_ks	1.00E+00	0.00E+00	1
ks_60	log	factor	4.624194561	1.00E-05	5.00E+02	upw_ks	1.00E+00	0.00E+00	1
ks_61	log	factor	0.029343739	1.00E-05	5.00E+02	upw_ks	1.00E+00	0.00E+00	1
ks_62	log	factor	0.194079531	1.00E-05	5.00E+02	upw_ks	1.00E+00	0.00E+00	1
ks_63	log	factor	10.94338861	1.00E-05	5.00E+02	upw_ks	1.00E+00	0.00E+00	1
ks_64	log	factor	5.70E-04	1.00E-05	5.00E+02	upw_ks	1.00E+00	0.00E+00	1
ks_65	log	factor	1.45E-03	1.00E-05	5.00E+02	upw_ks	1.00E+00	0.00E+00	1
ks_66	log	factor	5.727972018	1.00E-05	5.00E+02	upw_ks	1.00E+00	0.00E+00	1
ks_67	log	factor	11.95673955	1.00E-05	5.00E+02	upw_ks	1.00E+00	0.00E+00	1
ks_68	log	factor	6.68E-03	1.00E-05	5.00E+02	upw_ks	1.00E+00	0.00E+00	1
ks_69	log	factor	0.760224697	1.00E-05	5.00E+02	upw_ks	1.00E+00	0.00E+00	1
ks_7	log	factor	9.88E-06	1.00E-06	5.00E+02	upw_ks	1.00E+00	0.00E+00	1
ks_70	log	factor	3.890284522	1.00E-05	5.00E+02	upw_ks	1.00E+00	0.00E+00	1
ks_71	log	factor	9.67E-06	1.00E-06	5.00E+02	upw_ks	1.00E+00	0.00E+00	1
ks_72	log	factor	8.91E-05	1.00E-06	5.00E+02	upw_ks	1.00E+00	0.00E+00	1
ks_73	log	factor	1.01E-04	1.00E-05	5.00E+02	upw_ks	1.00E+00	0.00E+00	1
ks_74	log	factor	9.33E-05	1.00E-06	5.00E+02	upw_ks	1.00E+00	0.00E+00	1
ks_75	log	factor	1.14E-05	1.00E-06	5.00E+02	upw_ks	1.00E+00	0.00E+00	1
ks_76	log	factor	1.46E-04	1.00E-05	5.00E+02	upw_ks	1.00E+00	0.00E+00	1
ks_77	log	factor	1.02E-04	1.00E-05	5.00E+02	upw_ks	1.00E+00	0.00E+00	1
ks_78	log	factor	1.41E-05	1.00E-06	5.00E+02	upw_ks	1.00E+00	0.00E+00	1
ks_79	log	factor	9.61E-06	1.00E-06	5.00E+02	upw_ks	1.00E+00	0.00E+00	1
ks_8	log	factor	9.69E-06	1.00E-06	5.00E+02	upw_ks	1.00E+00	0.00E+00	1
ks_80	log	factor	1.89E+02	1.00E-05	5.00E+02	upw_ks	1.00E+00	0.00E+00	1
ks_81	log	factor	8.46E-05	1.00E-06	5.00E+02	upw_ks	1.00E+00	0.00E+00	1
ks_82	log	factor	5.00E+02	1.00E-05	5.00E+02	upw_ks	1.00E+00	0.00E+00	1
ks_83	log	factor	6.815819692	1.00E-05	5.00E+02	upw_ks	1.00E+00	0.00E+00	1
ks_84	log	factor	8.43E-05	1.00E-06	5.00E+02	upw_ks	1.00E+00	0.00E+00	1
ks_85	log	factor	1.25E-05	1.00E-06	5.00E+02	upw_ks	1.00E+00	0.00E+00	1
ks_86	log	factor	1.31E-04	1.00E-05	5.00E+02	upw_ks	1.00E+00	0.00E+00	1
ks_87	log	factor	5.00E+02	1.00E-05	5.00E+02	upw_ks	1.00E+00	0.00E+00	1
ks_88	log	factor	26.81596993	1.00E-05	5.00E+02	upw_ks	1.00E+00	0.00E+00	1
ks_89	log	factor	7.76E-05	1.00E-05	5.00E+02	upw_ks	1.00E+00	0.00E+00	1
ks_9	log	factor	8.202404898	1.00E-05	5.00E+02	upw_ks	1.00E+00	0.00E+00	1
ks_90	log	factor	4.645155789	1.00E-05	5.00E+02	upw_ks	1.00E+00	0.00E+00	1
ks_91	log	factor	14.9836	1.00E-05	5.00E+02	upw_ks	1.00E+00	0.00E+00	1
ks_92	log	factor	1.14E-04	1.00E-05	5.00E+02	upw_ks	1.00E+00	0.00E+00	1
ks_93	log	factor	0.185523311	1.00E-05	5.00E+02	upw_ks	1.00E+00	0.00E+00	1
ks_94	log	factor	9.59E-06	1.00E-06	5.00E+02	upw_ks	1.00E+00	0.00E+00	1
ks_95	log	factor	9.99E-05	1.00E-05	5.00E+02	upw_ks	1.00E+00	0.00E+00	1
ks_96	log	factor	1.73E-04	1.00E-05	5.00E+02	upw_ks	1.00E+00	0.00E+00	1
ks_97	log	factor	2.99E-05	1.00E-06	5.00E+02	upw_ks	1.00E+00	0.00E+00	1
ks_98	log	factor	1.09E-04	1.00E-05	5.00E+02	upw_ks	1.00E+00	0.00E+00	1
ks_99	log	factor	1.06E-04	1.00E-05	5.00E+02	upw_ks	1.00E+00	0.00E+00	1
lak_cond_1	fixed	factor	1	1.10E-10	1.10E+10	lak_cd	1.00E+00	0.00E+00	1
lak_cond_12	log	factor	1.029473147	1.00E-01	1.00E+04	lak_cd	1.00E+00	0.00E+00	1
lak_cond_2	fixed	factor	1	1.10E-10	1.10E+10	lak_cd	1.00E+00	0.00E+00	1
pet_1	fixed	factor	9.50E-05	1.10E-10	1.10E+10	uzf_pet	1.00E+00	0.00E+00	1
pond_recharge	log	factor	2.20E+04	1.00E+00	1.00E+05	well_rubber_dam	1.00E+00	0.00E+00	1
sfr_k_1	log	factor	0.060528946	1.00E-05	5.00E+02	sfr_ks	1.00E+00	0.00E+00	1
sfr_k_10	log	factor	0.113024166	1.00E-05	5.00E+02	sfr_ks	1.00E+00	0.00E+00	1
sfr_k_11	log	factor	0.217041755	1.00E-05	5.00E+02	sfr_ks	1.00E+00	0.00E+00	1
sfr_k_12	log	factor	0.884976575	1.00E-05	5.00E+02	sfr_ks	1.00E+00	0.00E+00	1
sfr_k_13	log	factor	0.099613435	1.00E-05	5.00E+02	sfr_ks	1.00E+00	0.00E+00	1
sfr_k_14	log	factor	0.196249955	1.00E-05	5.00E+02	sfr_ks	1.00E+00	0.00E+00	1
sfr_k_15	log	factor	0.129127979	1.00E-05	5.00E+02	sfr_ks	1.00E+00	0.00E+00	1
sfr_k_16	log	factor	0.268344567	1.00E-05	5.00E+02	sfr_ks	1.00E+00	0.00E+00	1
sfr_k_17	log	factor	0.108844686	1.00E-05	5.00E+02	sfr_ks	1.00E+00	0.00E+00	1
sfr_k_18	log	factor	0.141475	1.00E-05	5.00E+02	sfr_ks	1.00E+00	0.00E+00	1
sfr_k_19	log	factor	0.103520436	1.00E-05	5.00E+02	sfr_ks	1.00E+00	0.00E+00	1
sfr_k_2	log	factor	0.18151237	1.00E-05	5.00E+02	sfr_ks	1.00E+00	0.00E+00	1
sfr_k_20	log	factor	0.103929594	1.00E-05	5.00E+02	sfr_ks	1.00E+00	0.00E+00	1
sfr_k_21	log	factor	0.176149702	1.00E-05	5.00E+02	sfr_ks	1.00E+00	0.00E+00	1
sfr_k_22	log	factor	0.12567052	1.00E-05	5.00E+02	sfr_ks	1.00E+00	0.00E+00	1
sfr_k_3	log	factor	0.094153285	1.00E-05	5.00E+02	sfr_ks	1.00E+00	0.00E+00	1
sfr_k_4	log	factor	0.030599208	1.00E-05	5.00E+02	sfr_ks	1.00E+00	0.00E+00	1
sfr_k_5	log	factor	0.205415901	1.00E-05	5.00E+02	sfr_ks	1.00E+00	0.00E+00	1
sfr_k_6	log	factor	0.58594051	1.00E-05	5.00E+02	sfr_ks	1.00E+00	0.00E+00	1
sfr_k_7	log	factor	0.254318102	1.00E-05	5.00E+02	sfr_ks	1.00E+00	0.00E+00	1
sfr_k_8	log	factor	0.302233954	1.00E-05	5.00E+02	sfr_ks	1.00E+00	0.00E+00	1
sfr_k_9	log	factor	0.177565415	1.00E-05	5.00E+02	sfr_ks	1.00E+00	0.00E+00	1
spill_447	fixed	factor	1.85E+02	1.00E+02	2.20E+02	sfr_spil	1.00E+00	0.00E+00	1
spill_449	fixed	factor	1.47E+02	1.00E+02	2.20E+02	sfr_spil	1.00E+00	0.00E+00	1
spill_688	none	factor	8.23	8.23E+00	1.16E+01	sfr_spil	1.00E+00	0.00E+00	1
surfk_1_1	log	factor	2.24E-04	1.00E-10	5.00E+02	uzf_surfk	1.00E+00	0.00E+00	1
surfk_1_10	log	factor	2.53E-04	1.00E-10	5.00E+02	uzf_surfk	1.00E+00	0.00E+00	1
surfk_1_11	log	factor	2.51E-04	1.00E-10	5.00E+02	uzf_surfk	1.00E+00	0.00E+00	1
surfk_1_12	log	factor	2.51E-04	1.00E-10	5.00E+02	uzf_surfk	1.00E+00	0.00E+00	1
surfk_1_13	log	factor	2.51E-04	1.00E-10	5.00E+02	uzf_surfk	1.00E+00	0.00E+00	1
surfk_1_14	log	factor	2.51E-04	1.00E-10	5.00E+02	uzf_surfk	1.00E+00	0.00E+00	1
surfk_1_15	log	factor	2.31E-04	1.00E-10	5.00E+02	uzf_surfk	1.00E+00	0.00E+00	1
surfk_1_16	log	factor	2.28E-04	1.00E-10	5.00E+02	uzf_surfk	1.00E+00	0.00E+00	1
surfk_1_17	log	factor	2.51E-04	1.00E-10	5.00E+02	uzf_surfk	1.00E+00	0.00E+00	1
surfk_1_18	log	factor	2.64E-04	1.00E-10	5.00E+02	uzf_surfk	1.00E+00	0.00E+00	1
surfk_1_19	log	factor	2.51E-04	1.00E-10	5.00E+02	uzf_surfk	1.00E+00	0.00E+00	1
surfk_1_2	log	factor	2.25E-04	1.00E-10	5.00E+02	uzf_surfk	1.00E+00	0.00E+00	1
surfk_1_21	log	factor	2.49E-04	1.00E-10	5.00E+02	uzf_surfk	1.00E+00	0.00E+00	1
surfk_1_3	log	factor	2.32E-04	1.00E-10	5.00E+02	uzf_surfk	1.00E+00	0.00E+00	1
surfk_1_4	log	factor	3.46E-04	1.00E-10	5.00E+02	uzf_surfk	1.00E+00	0.00E+00	1
surfk_1_5	log	factor	3.33E-04	1.00E-10	5.00E+02	uzf_surfk	1.00E+00	0.00E+00	1
surfk_1_6	log	factor	2.31E-04	1.00E-10	5.00E+02	uzf_surfk	1.00E+00	0.00E+00	1
surfk_1_8	log	factor	2.49E-04	1.00E-10	5.00E+02	uzf_surfk	1.00E+00	0.00E+00	1
surfk_1_9	log	factor	2.12E-04	1.00E-10	5.00E+02	uzf_surfk	1.00E+00	0.00E+00	1
surfk_2_1	log	factor	3.16E-04	1.00E-10	5.00E+02	uzf_surfk	1.00E+00	0.00E+00	1
surfk_2_10	log	factor	2.47E-04	1.00E-10	5.00E+02	uzf_surfk	1.00E+00	0.00E+00	1
surfk_2_11	log	factor	2.31E-04	1.00E-10	5.00E+02	uzf_surfk	1.00E+00	0.00E+00	1
surfk_2_12	log	factor	2.08E-04	1.00E-10	5.00E+02	uzf_surfk	1.00E+00	0.00E+00	1
surfk_2_14	log	factor	1.45E-04	1.00E-10	5.00E+02	uzf_surfk	1.00E+00	0.00E+00	1
surfk_2_15	log	factor	1.63E-04	1.00E-10	5.00E+02	uzf_surfk	1.00E+00	0.00E+00	1
surfk_2_16	log	factor	1.53E-04	1.00E-10	5.00E+02	uzf_surfk	1.00E+00	0.00E+00	1
surfk_2_17	log	factor	1.58E-04	1.00E-10	5.00E+02	uzf_surfk	1.00E+00	0.00E+00	1
surfk_2_18	log	factor	1.72E-04	1.00E-10	5.00E+02	uzf_surfk	1.00E+00	0.00E+00	1
surfk_2_19	log	factor	1.58E-04	1.00E-10	5.00E+02	uzf_surfk	1.00E+00	0.00E+00	1
surfk_2_2	log	factor	9.26E-05	1.00E-10	5.00E+02	uzf_surfk	1.00E+00	0.00E+00	1
surfk_2_20	log	factor	5.66E-04	1.00E-10	5.00E+02	uzf_surfk	1.00E+00	0.00E+00	1
surfk_2_21	log	factor	1.58E-04	1.00E-10	5.00E+02	uzf_surfk	1.00E+00	0.00E+00	1
surfk_2_22	log	factor	1.52E-04	1.00E-10	5.00E+02	uzf_surfk	1.00E+00	0.00E+00	1
surfk_2_3	log	factor	9.98E-05	1.00E-10	5.00E+02	uzf_surfk	1.00E+00	0.00E+00	1
surfk_2_4	log	factor	2.21E-04	1.00E-10	5.00E+02	uzf_surfk	1.00E+00	0.00E+00	1
surfk_2_5	log	factor	2.62E-04	1.00E-10	5.00E+02	uzf_surfk	1.00E+00	0.00E+00	1
surfk_2_6	log	factor	1.29E-04	1.00E-10	5.00E+02	uzf_surfk	1.00E+00	0.00E+00	1
surfk_2_7	log	factor	2.41E-04	1.00E-10	5.00E+02	uzf_surfk	1.00E+00	0.00E+00	1
surfk_2_8	log	factor	2.42E-04	1.00E-10	5.00E+02	uzf_surfk	1.00E+00	0.00E+00	1
surfk_2_9	log	factor	2.16E-04	1.00E-10	5.00E+02	uzf_surfk	1.00E+00	0.00E+00	1
surfk_3_1	log	factor	3.01E-08	1.00E-10	5.00E+02	uzf_surfk	1.00E+00	0.00E+00	1
surfk_3_10	log	factor	3.10E-08	1.00E-10	5.00E+02	uzf_surfk	1.00E+00	0.00E+00	1
surfk_3_11	log	factor	3.10E-08	1.00E-10	5.00E+02	uzf_surfk	1.00E+00	0.00E+00	1
surfk_3_12	log	factor	3.10E-08	1.00E-10	5.00E+02	uzf_surfk	1.00E+00	0.00E+00	1
surfk_3_13	log	factor	3.10E-08	1.00E-10	5.00E+02	uzf_surfk	1.00E+00	0.00E+00	1
surfk_3_14	log	factor	3.15E-08	1.00E-10	5.00E+02	uzf_surfk	1.00E+00	0.00E+00	1
surfk_3_15	log	factor	3.08E-08	1.00E-10	5.00E+02	uzf_surfk	1.00E+00	0.00E+00	1
surfk_3_16	log	factor	1.04E-07	1.00E-10	5.00E+02	uzf_surfk	1.00E+00	0.00E+00	1
surfk_3_17	log	factor	3.18E-08	1.00E-10	5.00E+02	uzf_surfk	1.00E+00	0.00E+00	1
surfk_3_18	log	factor	2.99E-08	1.00E-10	5.00E+02	uzf_surfk	1.00E+00	0.00E+00	1
surfk_3_19	log	factor	3.10E-08	1.00E-10	5.00E+02	uzf_surfk	1.00E+00	0.00E+00	1
surfk_3_2	log	factor	3.08E-08	1.00E-10	5.00E+02	uzf_surfk	1.00E+00	0.00E+00	1
surfk_3_20	log	factor	1.11E-07	1.00E-10	5.00E+02	uzf_surfk	1.00E+00	0.00E+00	1
surfk_3_21	log	factor	3.10E-08	1.00E-10	5.00E+02	uzf_surfk	1.00E+00	0.00E+00	1
surfk_3_22	log	factor	2.48E-08	1.00E-10	5.00E+02	uzf_surfk	1.00E+00	0.00E+00	1
surfk_3_3	log	factor	3.08E-08	1.00E-10	5.00E+02	uzf_surfk	1.00E+00	0.00E+00	1
surfk_3_4	log	factor	3.08E-08	1.00E-10	5.00E+02	uzf_surfk	1.00E+00	0.00E+00	1
surfk_3_5	log	factor	3.10E-08	1.00E-10	5.00E+02	uzf_surfk	1.00E+00	0.00E+00	1
surfk_3_6	log	factor	9.98E-08	1.00E-10	5.00E+02	uzf_surfk	1.00E+00	0.00E+00	1
surfk_3_7	log	factor	3.08E-08	1.00E-10	5.00E+02	uzf_surfk	1.00E+00	0.00E+00	1
surfk_3_8	log	factor	3.10E-08	1.00E-10	5.00E+02	uzf_surfk	1.00E+00	0.00E+00	1
surfk_3_9	log	factor	3.10E-08	1.00E-10	5.00E+02	uzf_surfk	1.00E+00	0.00E+00	1
vka_ratio_1	none	factor	0.343477913	1.10E-10	1.10E+10	upw_vka	1.00E+00	0.00E+00	1
vka_ratio_2	none	factor	0.101393	1.10E-10	1.10E+10	upw_vka	1.00E+00	0.00E+00	1
vka_ratio_3	none	factor	0.060111948	1.10E-10	1.10E+10	upw_vka	1.00E+00	0.00E+00	1
vks_1_1	fixed	factor	2.51E-04	1.00E-10	5.00E+02	uzf_vks	1.00E+00	0.00E+00	1
vks_1_10	fixed	factor	2.51E-04	1.00E-10	5.00E+02	uzf_vks	1.00E+00	0.00E+00	1
vks_1_11	fixed	factor	2.51E-04	1.00E-10	5.00E+02	uzf_vks	1.00E+00	0.00E+00	1
vks_1_12	fixed	factor	2.51E-04	1.00E-10	5.00E+02	uzf_vks	1.00E+00	0.00E+00	1
vks_1_13	fixed	factor	2.51E-04	1.00E-10	5.00E+02	uzf_vks	1.00E+00	0.00E+00	1
vks_1_14	fixed	factor	2.51E-04	1.00E-10	5.00E+02	uzf_vks	1.00E+00	0.00E+00	1
vks_1_15	fixed	factor	2.51E-04	1.00E-10	5.00E+02	uzf_vks	1.00E+00	0.00E+00	1
vks_1_16	fixed	factor	2.51E-04	1.00E-10	5.00E+02	uzf_vks	1.00E+00	0.00E+00	1
vks_1_17	fixed	factor	2.51E-04	1.00E-10	5.00E+02	uzf_vks	1.00E+00	0.00E+00	1
vks_1_18	fixed	factor	2.51E-04	1.00E-10	5.00E+02	uzf_vks	1.00E+00	0.00E+00	1
vks_1_19	fixed	factor	2.51E-04	1.00E-10	5.00E+02	uzf_vks	1.00E+00	0.00E+00	1
vks_1_2	fixed	factor	2.51E-04	1.00E-10	5.00E+02	uzf_vks	1.00E+00	0.00E+00	1
vks_1_21	fixed	factor	2.51E-04	1.00E-10	5.00E+02	uzf_vks	1.00E+00	0.00E+00	1
vks_1_3	fixed	factor	2.51E-04	1.00E-10	5.00E+02	uzf_vks	1.00E+00	0.00E+00	1
vks_1_4	fixed	factor	3.98E-04	1.00E-10	5.00E+02	uzf_vks	1.00E+00	0.00E+00	1
vks_1_5	fixed	factor	3.98E-04	1.00E-10	5.00E+02	uzf_vks	1.00E+00	0.00E+00	1
vks_1_6	fixed	factor	2.51E-04	1.00E-10	5.00E+02	uzf_vks	1.00E+00	0.00E+00	1