# HOB package for MODFLOW-NWT generated by Flopy 3.3.5
       171         0         0      1018     -9999
         1
HO_0                    2        347        129          1                  0.0    -0.3599     0.1744    68.2503   # DATASET 3 - Observation 1
HO_1                    2        366        122          1                  0.0     0.4825     0.0641   314.6296   # DATASET 3 - Observation 2
HO_2                    2        373        147          1                  0.0     0.2282    -0.2041    83.3997   # DATASET 3 - Observation 3
HO_3                    1        358        143          1                  0.0    -0.1540     0.1118    26.7286   # DATASET 3 - Observation 4
HO_4                    1        351         99          1                  0.0     0.3474    -0.3930    -4.5919   # DATASET 3 - Observation 5
HO_5                    2        344        116          1                  0.0    -0.4132     0.4002   -11.0350   # DATASET 3 - Observation 6
HO_6                    2        374        149          1                  0.0     0.1560     0.2583    65.1355   # DATASET 3 - Observation 7
HO_7                    2        387        152          1                  0.0     0.3874    -0.1487   173.4660   # DATASET 3 - Observation 8
HO_8                    1        372        152          1                  0.0     0.2233    -0.3737    45.9676   # DATASET 3 - Observation 9
HO_9                    2        368        159          1                  0.0     0.0319     0.3324    49.3246   # DATASET 3 - Observation 10
HO_10                   2        359        155          1                  0.0     0.1621    -0.0172    48.4550   # DATASET 3 - Observation 11
HO_11                   2        353        152          1                  0.0     0.4698     0.4727    40.0979   # DATASET 3 - Observation 12
HO_12                   1        293        147          1                  0.0    -0.4371     0.1376    19.3256   # DATASET 3 - Observation 13
HO_13                   2        329        147          1                  0.0    -0.4893     0.0111    12.3366   # DATASET 3 - Observation 14
HO_14                   3        304        125          1                  0.0     0.0966    -0.4624   324.8890   # DATASET 3 - Observation 15
HO_15                   1        334         94          1                  0.0    -0.4938    -0.0975    13.4950   # DATASET 3 - Observation 16
HO_16                   2        280        146          1                  0.0    -0.0635    -0.2245    62.0403   # DATASET 3 - Observation 17
HO_17                   1        337        144          1                  0.0    -0.3118    -0.4852     3.9828   # DATASET 3 - Observation 18
HO_18                   2        289        180          1                  0.0    -0.4858    -0.4281    24.3950   # DATASET 3 - Observation 19
HO_19                   1        291        177          1                  0.0     0.2332    -0.1701    37.4358   # DATASET 3 - Observation 20
HO_20                   2        325        158          1                  0.0     0.1170    -0.1679    18.1986   # DATASET 3 - Observation 21
HO_21                   3        293        157          1                  0.0     0.4200    -0.0683    39.1015   # DATASET 3 - Observation 22
HO_22                   2        295        156          1                  0.0     0.0147    -0.4443    15.4875   # DATASET 3 - Observation 23
HO_23                   1        327        155          1                  0.0     0.2422    -0.0659    14.4814   # DATASET 3 - Observation 24
HO_24                   2        323        155          1                  0.0     0.3207     0.4802    12.5924   # DATASET 3 - Observation 25
HO_25                   1        322        155          1                  0.0    -0.2695     0.3325    11.5968   # DATASET 3 - Observation 26
HO_26                   2        322        155          1                  0.0    -0.2695     0.3325    10.7190   # DATASET 3 - Observation 27
HO_27                   1        313        156          1                  0.0    -0.2983    -0.3786    11.2937   # DATASET 3 - Observation 28
HO_28                   1        310        155          1                  0.0     0.0777    -0.0293    18.4356   # DATASET 3 - Observation 29
HO_29                   1        310        157          1                  0.0     0.0248    -0.1082    11.4599   # DATASET 3 - Observation 30
HO_30                   1        301        152          1                  0.0     0.0963    -0.0087    21.2190   # DATASET 3 - Observation 31
HO_31                   2        282        148          1                  0.0     0.4110     0.4626    17.6493   # DATASET 3 - Observation 32
HO_32                   2        298        187          1                  0.0     0.2488     0.2763    10.0889   # DATASET 3 - Observation 33
HO_33                   2        294        181          1                  0.0     0.2712    -0.2579    31.2621   # DATASET 3 - Observation 34
HO_34                   2        285        176          1                  0.0     0.1835    -0.0095    47.2575   # DATASET 3 - Observation 35
HO_35                   2        284        181          1                  0.0    -0.2753    -0.3933    39.2465   # DATASET 3 - Observation 36
HO_36                   3        334        148          1                  0.0    -0.2381    -0.2058    -1.4093   # DATASET 3 - Observation 37
HO_37                   2        330        152          1                  0.0     0.2420     0.3523    10.1445   # DATASET 3 - Observation 38
HO_38                   2        291        206          1                  0.0     0.4676     0.0677   130.6812   # DATASET 3 - Observation 39
HO_39                   1        284        204          1                  0.0    -0.4309     0.3364   122.0971   # DATASET 3 - Observation 40
HO_40                   3        253        144          1                  0.0     0.0099     0.2711    64.1488   # DATASET 3 - Observation 41
HO_41                   2        257        142          1                  0.0     0.2733     0.1496    58.4498   # DATASET 3 - Observation 42
HO_42                   3        257        135          1                  0.0     0.2492    -0.1602    93.1612   # DATASET 3 - Observation 43
HO_43                   1        268        130          1                  0.0    -0.0800    -0.1283    41.6590   # DATASET 3 - Observation 44
HO_44                   3        274        129          1                  0.0    -0.3901     0.4958    66.6429   # DATASET 3 - Observation 45
HO_45                   1        259        125          1                  0.0     0.3948    -0.4472    54.8153   # DATASET 3 - Observation 46
HO_46                   1        221        115          1                  0.0     0.0736    -0.1097    91.1350   # DATASET 3 - Observation 47
HO_47                   3        229        110          1                  0.0    -0.3239    -0.0151   100.7213   # DATASET 3 - Observation 48
HO_48                   3        223         92          1                  0.0    -0.2650    -0.3449   303.3760   # DATASET 3 - Observation 49
HO_49                   1        259        123          1                  0.0     0.0412     0.4641    49.4388   # DATASET 3 - Observation 50
HO_50                   1        258        125          1                  0.0     0.3997    -0.2548    61.6086   # DATASET 3 - Observation 51
HO_51                   1        231        118          1                  0.0     0.0288    -0.0979    86.1749   # DATASET 3 - Observation 52
HO_52                   2        224        115          1                  0.0    -0.3706     0.1580    85.2498   # DATASET 3 - Observation 53
HO_53                   1        227        114          1                  0.0     0.0353     0.3114    82.7974   # DATASET 3 - Observation 54
HO_54                   1        256        147          1                  0.0     0.3563     0.3431    55.9031   # DATASET 3 - Observation 55
HO_55                   2        249        139          1                  0.0     0.3122     0.2223    75.2073   # DATASET 3 - Observation 56
HO_56                   1        269        156          1                  0.0     0.0410     0.3555    47.1085   # DATASET 3 - Observation 57
HO_57                   2        271        166          1                  0.0     0.4336    -0.3388    49.3317   # DATASET 3 - Observation 58
HO_58                   2        278        170          1                  0.0    -0.3869     0.4912    39.6155   # DATASET 3 - Observation 59
HO_59                   2        276        168          1                  0.0    -0.3798     0.3409    42.3267   # DATASET 3 - Observation 60
HO_60                   2        274        157          1                  0.0    -0.0875    -0.4868    48.1654   # DATASET 3 - Observation 61
HO_61                   2        270        153          1                  0.0    -0.1967    -0.2702    48.3186   # DATASET 3 - Observation 62
HO_62                   2        267        164          1                  0.0    -0.1370    -0.2866    59.1367   # DATASET 3 - Observation 63
HO_63                   2        265        157          1                  0.0    -0.4499     0.3164    53.5019   # DATASET 3 - Observation 64
HO_64                   2        195         84          1                  0.0    -0.4973     0.2422   313.1166   # DATASET 3 - Observation 65
HO_65                   1        161         84          1                  0.0    -0.1280    -0.3773   138.5177   # DATASET 3 - Observation 66
HO_66                   3        172         81          1                  0.0     0.2432    -0.0466   337.4857   # DATASET 3 - Observation 67
HO_67                   1        155         80          1                  0.0    -0.3216    -0.1560   147.6307   # DATASET 3 - Observation 68
HO_68                   2        163         79          1                  0.0    -0.2386     0.3402   149.4032   # DATASET 3 - Observation 69
HO_69                   1        161         84          1                  0.0    -0.4889     0.3386   140.9884   # DATASET 3 - Observation 70
HO_70                   1        161         84          1                  0.0    -0.4889     0.3386   140.1422   # DATASET 3 - Observation 71
HO_71                   3        211        146          1                  0.0    -0.2240    -0.0904   535.2748   # DATASET 3 - Observation 72
HO_72                   3        158        100          1                  0.0     0.0880     0.4520   228.7220   # DATASET 3 - Observation 73
HO_73                   2        154         99          1                  0.0     0.3886     0.4114   241.8560   # DATASET 3 - Observation 74
HO_74                   1        157         99          1                  0.0     0.4708     0.1691   216.4411   # DATASET 3 - Observation 75
HO_75                   2        157         99          1                  0.0     0.4707     0.0889   221.0860   # DATASET 3 - Observation 76
HO_76                   2        155         99          1                  0.0    -0.3034     0.0905   252.2102   # DATASET 3 - Observation 77
HO_77                   2        159         99          1                  0.0     0.0119     0.0078   229.7724   # DATASET 3 - Observation 78
HO_78                   2        159         99          1                  0.0     0.4228    -0.0727   231.8148   # DATASET 3 - Observation 79
HO_79                   2        160         99          1                  0.0    -0.4745    -0.1529   226.9109   # DATASET 3 - Observation 80
HO_80                   3        154         99          1                  0.0    -0.1255    -0.1496   222.2155   # DATASET 3 - Observation 81
HO_81                   3        157         99          1                  0.0     0.1622    -0.3921   205.0568   # DATASET 3 - Observation 82
HO_82                   2        157         98          1                  0.0    -0.0436     0.1268   199.2946   # DATASET 3 - Observation 83
HO_83                   3        156         98          1                  0.0     0.2371    -0.0332   194.9656   # DATASET 3 - Observation 84
HO_84                   1        158         97          1                  0.0    -0.2220     0.4846   196.0492   # DATASET 3 - Observation 85
HO_85                   3        157         97          1                  0.0     0.0584    -0.0763   167.5479   # DATASET 3 - Observation 86
HO_86                   1        154         97          1                  0.0     0.3869    -0.2349   225.4241   # DATASET 3 - Observation 87
HO_87                   2        156         96          1                  0.0    -0.1750     0.2829   230.0697   # DATASET 3 - Observation 88
HO_88                   2        156         96          1                  0.0    -0.1750     0.2027   227.8431   # DATASET 3 - Observation 89
HO_89                   2        156         96          1                  0.0    -0.2778     0.1226   227.5380   # DATASET 3 - Observation 90
HO_90                   3        157         96          1                  0.0    -0.1478    -0.1188   146.6477   # DATASET 3 - Observation 91
HO_91                   3        156         96          1                  0.0     0.4412    -0.1185   209.9901   # DATASET 3 - Observation 92
HO_92                   3        157         96          1                  0.0    -0.1480    -0.3594   156.6222   # DATASET 3 - Observation 93
HO_93                   3        157         96          1                  0.0    -0.4562    -0.3592   152.2773   # DATASET 3 - Observation 94
HO_94                   3        165         94          1                  0.0    -0.4433    -0.0495   190.0581   # DATASET 3 - Observation 95
HO_95                   2        161         92          1                  0.0     0.2676     0.4290   162.9310   # DATASET 3 - Observation 96
HO_96                   1        161         92          1                  0.0     0.1646     0.1082   113.1434   # DATASET 3 - Observation 97
HO_97                   2        157         88          1                  0.0     0.1864     0.4999   158.1292   # DATASET 3 - Observation 98
HO_98                   1        129         73          1                  0.0    -0.2244    -0.2523   152.9843   # DATASET 3 - Observation 99
HO_99                   1        123         70          1                  0.0     0.0168    -0.2068   164.8336   # DATASET 3 - Observation 100
HO_100                  2        105         68          1                  0.0     0.3227     0.4716   190.3652   # DATASET 3 - Observation 101
HO_101                  2        116         63          1                  0.0     0.4915    -0.3213   158.7467   # DATASET 3 - Observation 102
HO_102                  2        116         63          1                  0.0     0.4401    -0.3693   160.1610   # DATASET 3 - Observation 103
HO_103                  1         94         60          1                  0.0    -0.1835    -0.3183   175.4965   # DATASET 3 - Observation 104
HO_104                  2        112         67          1                  0.0     0.0619    -0.3726   170.1523   # DATASET 3 - Observation 105
HO_105                  2        112         67          1                  0.0    -0.4976    -0.3134   168.5338   # DATASET 3 - Observation 106
HO_106                  2        110         65          1                  0.0     0.0264    -0.1180   166.4602   # DATASET 3 - Observation 107
HO_107                  1        110         66          1                  0.0    -0.3417    -0.1634   170.0163   # DATASET 3 - Observation 108
HO_108                  1        105         61          1                  0.0    -0.1049    -0.1971   170.8007   # DATASET 3 - Observation 109
HO_109                  1        104         62          1                  0.0     0.0858    -0.4687   171.8344   # DATASET 3 - Observation 110
HO_110                  1        104         62          1                  0.0    -0.1344    -0.3208   170.7914   # DATASET 3 - Observation 111
HO_111                  2        102         59          1                  0.0    -0.0462    -0.4038   170.6977   # DATASET 3 - Observation 112
HO_112                  1        101         60          1                  0.0    -0.1721    -0.1309   171.3672   # DATASET 3 - Observation 113
HO_113                  1         98         57          1                  0.0     0.0509     0.0821   168.6868   # DATASET 3 - Observation 114
HO_114                  1        101         59          1                  0.0     0.2839    -0.4035   171.7711   # DATASET 3 - Observation 115
HO_115                  2        153         99          1                  0.0    -0.0503    -0.3896   245.5269   # DATASET 3 - Observation 116
HO_116                  3        153         98          1                  0.0     0.1550     0.2895   236.4963   # DATASET 3 - Observation 117
HO_117                  3        153         98          1                  0.0     0.0521     0.0490   237.6303   # DATASET 3 - Observation 118
HO_118                  2        154         98          1                  0.0    -0.4345    -0.3523   218.0405   # DATASET 3 - Observation 119
HO_119                  3        153         98          1                  0.0     0.3600    -0.4324   236.8054   # DATASET 3 - Observation 120
HO_120                  1        150         90          1                  0.0    -0.2417     0.3539   250.5608   # DATASET 3 - Observation 121
HO_121                  2        148         88          1                  0.0     0.2152     0.4311   231.9437   # DATASET 3 - Observation 122
HO_122                  2         59         64          1                  0.0    -0.3159    -0.0102   311.5607   # DATASET 3 - Observation 123
HO_123                  2         59         63          1                  0.0    -0.3171     0.3506   229.1457   # DATASET 3 - Observation 124
HO_124                  3         47         62          1                  0.0     0.1729     0.4944   257.8241   # DATASET 3 - Observation 125
HO_125                  2         58         62          1                  0.0     0.3716    -0.1669   275.6614   # DATASET 3 - Observation 126
HO_126                  2         50         58          1                  0.0     0.2460    -0.0645   234.9758   # DATASET 3 - Observation 127
HO_127                  2         57         58          1                  0.0     0.4381    -0.3196   228.2811   # DATASET 3 - Observation 128
HO_128                  2         59         58          1                  0.0    -0.3292    -0.4821   183.6606   # DATASET 3 - Observation 129
HO_129                  2         44         58          1                  0.0    -0.4130    -0.2403   239.0992   # DATASET 3 - Observation 130
HO_130                  2         63         56          1                  0.0    -0.1199    -0.0895   202.9659   # DATASET 3 - Observation 131
HO_131                  1         48         56          1                  0.0    -0.2249    -0.2156   221.2176   # DATASET 3 - Observation 132
HO_132                  1         54         56          1                  0.0    -0.0601    -0.3891   211.2354   # DATASET 3 - Observation 133
HO_133                  1         41         55          1                  0.0    -0.3159     0.3211   235.9732   # DATASET 3 - Observation 134
HO_134                  1         41         55          1                  0.0    -0.2133     0.2411   236.6496   # DATASET 3 - Observation 135
HO_135                  2         59         55          1                  0.0     0.1792     0.1197   194.5737   # DATASET 3 - Observation 136
HO_136                  1         50         55          1                  0.0     0.1364    -0.0995   216.0386   # DATASET 3 - Observation 137
HO_137                  1         40         55          1                  0.0    -0.2417    -0.1558   230.5143   # DATASET 3 - Observation 138
HO_138                  2         52         54          1                  0.0     0.2913    -0.3825   193.8107   # DATASET 3 - Observation 139
HO_139                  2         58         52          1                  0.0     0.3506     0.3251   239.7435   # DATASET 3 - Observation 140
HO_140                  2         58         52          1                  0.0     0.0422     0.2459   240.3521   # DATASET 3 - Observation 141
HO_141                  1         43         51          1                  0.0    -0.2714    -0.1551   243.0336   # DATASET 3 - Observation 142
HO_142                  3         39         51          1                  0.0    -0.4846    -0.3046   216.1965   # DATASET 3 - Observation 143
HO_143                  2         34         50          1                  0.0    -0.3148     0.3878   242.4807   # DATASET 3 - Observation 144
HO_144                  2         56         50          1                  0.0     0.4943    -0.4668   186.4310   # DATASET 3 - Observation 145
HO_145                  1         56         50          1                  0.0     0.3915    -0.4665   205.2233   # DATASET 3 - Observation 146
HO_146                  3         29         49          1                  0.0     0.4697     0.3606   255.0428   # DATASET 3 - Observation 147
HO_147                  3         39         49          1                  0.0    -0.0780    -0.0621   257.2931   # DATASET 3 - Observation 148
HO_148                  1         53         49          1                  0.0     0.2040    -0.3374   225.6674   # DATASET 3 - Observation 149
HO_149                  2         53         48          1                  0.0     0.2346     0.4725   213.5612   # DATASET 3 - Observation 150
HO_150                  1         49         47          1                  0.0    -0.2174     0.4756   248.1010   # DATASET 3 - Observation 151
HO_151                  2         48         47          1                  0.0     0.3712     0.3170   252.7367   # DATASET 3 - Observation 152
HO_152                  1         86         53          1                  0.0     0.1799     0.4699   191.4593   # DATASET 3 - Observation 153
HO_153                  1         81         55          1                  0.0     0.3785     0.4733   185.0457   # DATASET 3 - Observation 154
HO_154                  2         79         57          1                  0.0     0.2435    -0.4943   177.1098   # DATASET 3 - Observation 155
HO_155                  2         79         57          1                  0.0     0.2435    -0.4943   174.8492   # DATASET 3 - Observation 156
HO_156                  2         79         57          1                  0.0     0.2435    -0.4943   174.6318   # DATASET 3 - Observation 157
HO_157                  2         79         57          1                  0.0     0.2435    -0.4943   174.4245   # DATASET 3 - Observation 158
HO_158                  2         59         57          1                  0.0     0.4002     0.2939   197.9953   # DATASET 3 - Observation 159
HO_159                  2         59         57          1                  0.0     0.4002     0.2939   183.8588   # DATASET 3 - Observation 160
HO_160                  2         59         57          1                  0.0     0.4002     0.2939   192.9947   # DATASET 3 - Observation 161
HO_161                  3         57         68          1                  0.0     0.1286    -0.1384   276.4320   # DATASET 3 - Observation 162
HO_162                  2         56         48          1                  0.0    -0.3711    -0.3145   214.5256   # DATASET 3 - Observation 163
HO_163                  1         54         53          1                  0.0     0.2213    -0.0539   218.2671   # DATASET 3 - Observation 164
HO_164                  2         54         54          1                  0.0    -0.2131    -0.1700   197.4105   # DATASET 3 - Observation 165
HO_165                  2         52         58          1                  0.0     0.3571    -0.0401   228.9339   # DATASET 3 - Observation 166
HO_166                  1         52         48          1                  0.0     0.1993    -0.4812   228.3784   # DATASET 3 - Observation 167
HO_167                  3         49         63          1                  0.0     0.2089     0.2744   265.6220   # DATASET 3 - Observation 168
HO_168                  1         45         87          1                  0.0     0.1012    -0.1440   275.1291   # DATASET 3 - Observation 169
HO_169                  1         29         81          1                  0.0    -0.3957    -0.4324   290.5646   # DATASET 3 - Observation 170
HO_170                  1         29         81          1                  0.0    -0.4046    -0.3036   290.3786   # DATASET 3 - Observation 171
