# NWT package for  MODFLOW-NWT, generated by Flopy.
 5.000e-02 2.000e+03     500 1.000e-08         2         1         1 SPECIFIED      0.4     1e-05         0       0.1         0        30      1.01       0.7
         2         0         7         7         0         0         1     0.001   0.00015       50
		 
		 
		 
