# GHB package for MODFLOW-NWT generated by Flopy 3.3.5
       379        55
       379         0 # stress period 1
         2       300       171          216.91         40000.0
         3       300       171          216.91         40000.0
         2       301       171       84.049995         40000.0
         3       301       171       84.049995         40000.0
         2       302       172       55.154266         40000.0
         3       302       172       55.154266         40000.0
         2       303       171        54.43017         40000.0
         3       303       171        54.43017         40000.0
         3       304       170       87.889915         40000.0
         3       305       170        87.37661         40000.0
         3       306       169        70.68078         40000.0
         3       307       169       66.973885         40000.0
         3       308       168       52.750534         40000.0
         3       309       168        52.82777         40000.0
         3       310       167        44.40035         40000.0
         3       310       166       42.190712         40000.0
         3       311       165       39.980236         40000.0
         3       312       161       34.451763         40000.0
         3       312       162       38.376507         40000.0
         3       312       163       39.827007         40000.0
         3       312       164         39.5102         40000.0
         3       313       160       27.260145         40000.0
         3       314       160        29.66381         40000.0
         3       315       160       29.755493         40000.0
         3       316       160       30.019175         40000.0
         3       317       160       30.059702         40000.0
         3       318       160        31.80302         40000.0
         3       319       160       32.719162         40000.0
         1       320       159       21.648703         40000.0
         2       320       159       21.648703         40000.0
         3       320       159       21.648703         40000.0
         1       321       159       21.616602         40000.0
         2       321       159       21.616602         40000.0
         3       321       159       21.616602         40000.0
         3       322       159       25.273975         40000.0
         3       323       159       27.399048         40000.0
         3       324       159       28.125444         40000.0
         1       325       158        21.03232         40000.0
         2       325       158        21.03232         40000.0
         3       325       158        21.03232         40000.0
         3       326       159        26.88716         40000.0
         3       327       158       21.000317         40000.0
         1       328       157       21.032095         40000.0
         2       328       157       21.032095         40000.0
         3       328       157       21.032095         40000.0
         1       329       157       21.167154         40000.0
         2       329       157       21.167154         40000.0
         3       329       157       21.167154         40000.0
         1       330       157       21.375366         40000.0
         2       330       157       21.375366         40000.0
         3       330       157       21.375366         40000.0
         2       331       156       23.674923         40000.0
         3       331       156       23.674923         40000.0
         2       332       156       25.670624         40000.0
         3       332       156       25.670624         40000.0
         2       333       152       54.851128         40000.0
         3       333       152       54.851128         40000.0
         2       333       153       42.803215         40000.0
         3       333       153       42.803215         40000.0
         2       333       154            34.3         40000.0
         3       333       154            34.3         40000.0
         2       333       155       35.792374         40000.0
         3       333       155       35.792374         40000.0
         2       334       150        52.87482         40000.0
         3       334       150        52.87482         40000.0
         2       334       151        64.61871         40000.0
         3       334       151        64.61871         40000.0
         1       335       149       14.028956         40000.0
         2       335       149       14.028956         40000.0
         3       335       149       14.028956         40000.0
         1       336       148        5.216931         40000.0
         2       336       148        5.216931         40000.0
         3       336       148        5.216931         40000.0
         1       337       146       5.2229304         40000.0
         2       337       146       5.2229304         40000.0
         3       337       146       5.2229304         40000.0
         1       337       147       1.8517231         40000.0
         2       337       147       1.8517231         40000.0
         3       337       147       1.8517231         40000.0
         2       338       145           -5.84         40000.0
         3       338       145           -5.84         40000.0
         2       339       145            6.26         40000.0
         3       339       145            6.26         40000.0
         2       340       145       42.682526         40000.0
         3       340       145       42.682526         40000.0
         2       341       146       46.914017         40000.0
         3       341       146       46.914017         40000.0
         3       341       147        56.64553         40000.0
         2       341       148           59.61         40000.0
         3       341       148           59.61         40000.0
         2       341       149            62.9         40000.0
         3       341       149            62.9         40000.0
         2       341       150           72.18         40000.0
         3       341       150           72.18         40000.0
         2       342       151        60.99743         40000.0
         3       342       151        60.99743         40000.0
         2       343       151       56.680367         40000.0
         3       343       151       56.680367         40000.0
         2       344       152       54.087017         40000.0
         3       344       152       54.087017         40000.0
         2       345       152       51.959854         40000.0
         3       345       152       51.959854         40000.0
         2       346       152       50.096355         40000.0
         3       346       152       50.096355         40000.0
         2       347       153       48.385876         40000.0
         3       347       153       48.385876         40000.0
         2       348       154       47.462128         40000.0
         3       348       154       47.462128         40000.0
         2       349       154       46.551796         40000.0
         3       349       154       46.551796         40000.0
         2       350       154       45.260456         40000.0
         3       350       154       45.260456         40000.0
         2       351       154       43.906982         40000.0
         3       351       154       43.906982         40000.0
         2       352       154        42.72683         40000.0
         3       352       154        42.72683         40000.0
         2       353       154       41.899612         40000.0
         3       353       154       41.899612         40000.0
         2       354       154        41.44635         40000.0
         3       354       154        41.44635         40000.0
         3       355       155        48.54984         40000.0
         3       356       155       44.689648         40000.0
         2       357       155       39.151806         40000.0
         3       357       155       39.151806         40000.0
         2       358       155        39.26715         40000.0
         3       358       155        39.26715         40000.0
         2       359       155       39.736313         40000.0
         3       359       155       39.736313         40000.0
         2       360       155       41.115906         40000.0
         3       360       155       41.115906         40000.0
         2       361       156       47.562057         40000.0
         3       361       156       47.562057         40000.0
         2       361       157         45.3196         40000.0
         3       361       157         45.3196         40000.0
         2       362       158        43.71386         40000.0
         3       362       158        43.71386         40000.0
         2       363       159       42.939316         40000.0
         3       363       159       42.939316         40000.0
         2       364       160        42.99341         40000.0
         3       364       160        42.99341         40000.0
         2       365       160       43.407967         40000.0
         3       365       160       43.407967         40000.0
         3       366       160       45.492744         40000.0
         2       367       160        44.14012         40000.0
         3       367       160        44.14012         40000.0
         2       368       160       43.950935         40000.0
         3       368       160       43.950935         40000.0
         2       369       160        43.60556         40000.0
         3       369       160        43.60556         40000.0
         2       370       160       43.976997         40000.0
         3       370       160       43.976997         40000.0
         2       371       160        44.35347         40000.0
         3       371       160        44.35347         40000.0
         2       372       160       44.840218         40000.0
         3       372       160       44.840218         40000.0
         3       373       161       51.772408         40000.0
         3       374       161        52.48389         40000.0
         2       375       161        50.70329         40000.0
         3       375       161        50.70329         40000.0
         2       376       161        51.69178         40000.0
         3       376       161        51.69178         40000.0
         2       377       161       53.500126         40000.0
         3       377       161       53.500126         40000.0
         2       378       161       56.771782         40000.0
         3       378       161       56.771782         40000.0
         2       379       162       63.779617         40000.0
         3       379       162       63.779617         40000.0
         2       380       163       65.165695         40000.0
         3       380       163       65.165695         40000.0
         3       381       163        73.40545         40000.0
         3       382       163        75.83076         40000.0
         2       383       163        75.20605         40000.0
         3       383       163        75.20605         40000.0
         2       384       163        76.38721         40000.0
         3       384       163        76.38721         40000.0
         2       376       143       105.30157         40000.0
         3       376       143       105.30157         40000.0
         2       377       144        96.41767         40000.0
         3       377       144        96.41767         40000.0
         2       378       144        92.86228         40000.0
         3       378       144        92.86228         40000.0
         2       379       144       94.968925         40000.0
         3       379       144       94.968925         40000.0
         2       380       144        96.22796         40000.0
         3       380       144        96.22796         40000.0
         2       381       144        99.71445         40000.0
         3       381       144        99.71445         40000.0
         2       382       144       102.68506         40000.0
         3       382       144       102.68506         40000.0
         2       383       144      104.851456         40000.0
         3       383       144      104.851456         40000.0
         2       384       145       107.87424         40000.0
         3       384       145       107.87424         40000.0
         2       384       146      107.318756         40000.0
         3       384       146      107.318756         40000.0
         2       385       147      110.092865         40000.0
         3       385       147      110.092865         40000.0
         2       385       148       109.79108         40000.0
         3       385       148       109.79108         40000.0
         2       385       149       109.80109         40000.0
         3       385       149       109.80109         40000.0
         2       385       161        78.18061         40000.0
         3       385       161        78.18061         40000.0
         2       385       162       77.560425         40000.0
         3       385       162       77.560425         40000.0
         2       386       150       142.89328         40000.0
         3       386       150       142.89328         40000.0
         2       386       160       108.70116         40000.0
         3       386       160       108.70116         40000.0
         2       387       151       170.54497         40000.0
         3       387       151       170.54497         40000.0
         2       387       159       120.82152         40000.0
         3       387       159       120.82152         40000.0
         2       388       152          153.06         40000.0
         3       388       152          153.06         40000.0
         2       388       159          156.73         40000.0
         3       388       159          156.73         40000.0
         2       389       152          177.43         40000.0
         3       389       152          177.43         40000.0
         3       389       159       150.96535         40000.0
         2       390       152          204.28         40000.0
         3       390       152          204.28         40000.0
         2       390       158       157.75775         40000.0
         3       390       158       157.75775         40000.0
         2       391       153          232.04         40000.0
         3       391       153          232.04         40000.0
         2       391       158          180.57         40000.0
         3       391       158          180.57         40000.0
         2       392       154          224.88         40000.0
         3       392       154          224.88         40000.0
         2       392       155          205.78         40000.0
         3       392       155          205.78         40000.0
         2       392       156          225.97         40000.0
         3       392       156          225.97         40000.0
         2       392       157       169.66315         40000.0
         3       392       157       169.66315         40000.0
         2       362       118          337.91         40000.0
         3       362       118          337.91         40000.0
         2       363       115          331.84         40000.0
         3       363       115          331.84         40000.0
         2       363       116          323.23         40000.0
         3       363       116          323.23         40000.0
         2       363       117          343.88         40000.0
         3       363       117          343.88         40000.0
         2       363       119          350.54         40000.0
         3       363       119          350.54         40000.0
         2       364        89          212.25         40000.0
         3       364        89          212.25         40000.0
         2       364        90       235.35999         40000.0
         3       364        90       235.35999         40000.0
         2       364        91          231.47         40000.0
         3       364        91          231.47         40000.0
         2       364       114          244.16         40000.0
         3       364       114          244.16         40000.0
         2       364       120          332.89         40000.0
         3       364       120          332.89         40000.0
         2       364       121          320.31         40000.0
         3       364       121          320.31         40000.0
         2       365        92          219.83         40000.0
         3       365        92          219.83         40000.0
         2       365       114          251.37         40000.0
         3       365       114          251.37         40000.0
         2       365       122          262.81         40000.0
         3       365       122          262.81         40000.0
         2       366        92       254.29999         40000.0
         3       366        92       254.29999         40000.0
         2       366       114          261.53         40000.0
         3       366       114          261.53         40000.0
         2       366       122          296.86         40000.0
         3       366       122          296.86         40000.0
         2       367        93       252.70001         40000.0
         3       367        93       252.70001         40000.0
         2       367        94          266.88         40000.0
         3       367        94          266.88         40000.0
         2       367        95          281.04         40000.0
         3       367        95          281.04         40000.0
         2       367        96          234.35         40000.0
         3       367        96          234.35         40000.0
         2       367        98          252.69         40000.0
         3       367        98          252.69         40000.0
         2       367        99          214.55         40000.0
         3       367        99          214.55         40000.0
         2       367       100          148.59         40000.0
         3       367       100          148.59         40000.0
         2       367       113          278.09         40000.0
         3       367       113          278.09         40000.0
         2       367       123          282.39         40000.0
         3       367       123          282.39         40000.0
         2       367       124          260.99         40000.0
         3       367       124          260.99         40000.0
         2       367       125          261.81         40000.0
         3       367       125          261.81         40000.0
         3       368        97       264.99567         40000.0
         2       368       101          210.01         40000.0
         3       368       101          210.01         40000.0
         2       368       112          218.11         40000.0
         3       368       112          218.11         40000.0
         2       368       126          251.22         40000.0
         3       368       126          251.22         40000.0
         2       368       127          217.54         40000.0
         3       368       127          217.54         40000.0
         2       368       132          198.94         40000.0
         3       368       132          198.94         40000.0
         2       368       133       248.82999         40000.0
         3       368       133       248.82999         40000.0
         2       369       102          254.07         40000.0
         3       369       102          254.07         40000.0
         2       369       111          225.03         40000.0
         3       369       111          225.03         40000.0
         2       369       128          207.09         40000.0
         3       369       128          207.09         40000.0
         2       369       129          150.91         40000.0
         3       369       129          150.91         40000.0
         2       369       131          215.28         40000.0
         3       369       131          215.28         40000.0
         2       369       134          233.42         40000.0
         3       369       134          233.42         40000.0
         2       369       135       210.28659         40000.0
         3       369       135       210.28659         40000.0
         2       370       103          285.39         40000.0
         3       370       103          285.39         40000.0
         2       370       104          270.54         40000.0
         3       370       104          270.54         40000.0
         2       370       108           263.1         40000.0
         3       370       108           263.1         40000.0
         2       370       110          205.49         40000.0
         3       370       110          205.49         40000.0
         3       370       130       167.30989         40000.0
         2       370       136          227.57         40000.0
         3       370       136          227.57         40000.0
         2       371       105          304.03         40000.0
         3       371       105          304.03         40000.0
         2       371       106          303.59         40000.0
         3       371       106          303.59         40000.0
         2       371       107          304.84         40000.0
         3       371       107          304.84         40000.0
         2       371       109          275.83         40000.0
         3       371       109          275.83         40000.0
         2       371       137       126.30417         40000.0
         3       371       137       126.30417         40000.0
         2       371       138       124.68086         40000.0
         3       371       138       124.68086         40000.0
         2       372       139       121.13054         40000.0
         3       372       139       121.13054         40000.0
         2       373       139       121.34215         40000.0
         3       373       139       121.34215         40000.0
         2       374       140       118.76962         40000.0
         3       374       140       118.76962         40000.0
         2       375       141       114.89064         40000.0
         3       375       141       114.89064         40000.0
         2       376       142       116.06464         40000.0
         3       376       142       116.06464         40000.0
         1       356        79       17.259998         40000.0
         2       356        79       17.259998         40000.0
         3       356        79       17.259998         40000.0
         1       357        80           44.98         40000.0
         2       357        80           44.98         40000.0
         3       357        80           44.98         40000.0
         1       358        81       26.880001         40000.0
         2       358        81       26.880001         40000.0
         3       358        81       26.880001         40000.0
         1       359        81           44.54         40000.0
         2       359        81           44.54         40000.0
         3       359        81           44.54         40000.0
         1       360        82           38.79         40000.0
         2       360        82           38.79         40000.0
         3       360        82           38.79         40000.0
         2       361        83       52.839996         40000.0
         3       361        83       52.839996         40000.0
         2       361        84       61.370003         40000.0
         3       361        84       61.370003         40000.0
         2       362        85           83.13         40000.0
         3       362        85           83.13         40000.0
         2       363        86      116.630005         40000.0
         3       363        86      116.630005         40000.0
         2       363        87          147.43         40000.0
         3       363        87          147.43         40000.0
         2       363        88          157.66         40000.0
         3       363        88          157.66         40000.0
