# SFR package for  MODFLOW-NWT, generated by Flopy.
reachinput 
3509 445 0 0 86400.00000000 0.00010000 55 81 3 15 1 50 
2 10 68 1 1 300.0 422.1099853515625 0.03170805051922798 0.5 0.10000000149011612 0.3100000023841858 0.13099999725818634 3.5 0.10000000149011612
2 11 68 1 2 362.0 406.2900085449219 0.03170805051922798 0.5 0.10000000149011612 0.3100000023841858 0.13099999725818634 3.5 0.10000000149011612
2 12 69 1 3 424.0 381.239990234375 0.03170805051922798 0.5 0.10000000149011612 0.3100000023841858 0.13099999725818634 3.5 0.10000000149011612
2 13 70 1 4 424.0 366.5400085449219 0.03170805051922798 0.5 0.10000000149011612 0.3100000023841858 0.13099999725818634 3.5 0.10000000149011612
2 14 69 1 5 362.0 358.6099853515625 0.03170805051922798 0.5 0.10000000149011612 0.3100000023841858 0.13099999725818634 3.5 0.10000000149011612
2 15 69 1 6 362.0 351.2099914550781 0.03170805051922798 0.5 0.10000000149011612 0.3100000023841858 0.13099999725818634 3.5 0.10000000149011612
2 16 68 1 7 424.0 337.8299865722656 0.03170805051922798 0.5 0.10000000149011612 0.3100000023841858 0.13099999725818634 3.5 0.10000000149011612
2 13 46 2 1 424.0 360.69000244140625 0.021233737468719482 0.5 0.10000000149011612 0.3100000023841858 0.13099999725818634 3.5 0.10000000149011612
2 14 47 2 2 362.0 349.239990234375 0.021233737468719482 0.5 0.10000000149011612 0.3100000023841858 0.13099999725818634 3.5 0.10000000149011612
2 15 47 2 3 300.0 336.9100036621094 0.021233737468719482 0.5 0.10000000149011612 0.3100000023841858 0.13099999725818634 3.5 0.10000000149011612
2 16 47 2 4 300.0 326.6199951171875 0.021233737468719482 0.5 0.10000000149011612 0.3100000023841858 0.13099999725818634 3.5 0.10000000149011612
2 17 47 2 5 300.0 320.92999267578125 0.021233737468719482 0.5 0.10000000149011612 0.3100000023841858 0.13099999725818634 3.5 0.10000000149011612
2 18 47 2 6 362.0 314.760009765625 0.021233737468719482 0.5 0.10000000149011612 0.3100000023841858 0.13099999725818634 3.5 0.10000000149011612
2 19 48 2 7 362.0 301.19000244140625 0.021233737468719482 0.5 0.10000000149011612 0.3100000023841858 0.13099999725818634 3.5 0.10000000149011612
2 20 48 2 8 300.0 289.07000732421875 0.021233737468719482 0.5 0.10000000149011612 0.3100000023841858 0.13099999725818634 3.5 0.10000000149011612
2 21 48 2 9 362.0 280.04998779296875 0.021233737468719482 0.5 0.10000000149011612 0.3100000023841858 0.13099999725818634 3.5 0.10000000149011612
2 22 49 2 10 362.0 276.7900085449219 0.021233737468719482 0.5 0.10000000149011612 0.3100000023841858 0.13099999725818634 3.5 0.10000000149011612
2 23 49 2 11 300.0 272.7900085449219 0.021233737468719482 0.5 0.10000000149011612 0.3100000023841858 0.13099999725818634 3.5 0.10000000149011612
2 24 49 2 12 362.0 269.9800109863281 0.021233737468719482 0.5 0.10000000149011612 0.3100000023841858 0.13099999725818634 3.5 0.10000000149011612
2 25 50 2 13 362.0 266.0299987792969 0.021233737468719482 0.5 0.10000000149011612 0.3100000023841858 0.13099999725818634 3.5 0.10000000149011612
2 14 64 3 1 424.0 373.2099914550781 0.03476415202021599 0.5 0.10000000149011612 0.3100000023841858 0.13099999725818634 3.5 0.10000000149011612
2 15 65 3 2 424.0 363.2200012207031 0.03476415202021599 0.5 0.10000000149011612 0.3100000023841858 0.13099999725818634 3.5 0.10000000149011612
2 16 66 3 3 424.0 328.989990234375 0.03476415202021599 0.5 0.10000000149011612 0.3100000023841858 0.13099999725818634 3.5 0.10000000149011612
2 17 67 4 1 636.0 325.0199890136719 0.00585602642968297 0.5 0.10000000149011612 0.3100000023841858 0.13099999725818634 3.5 0.10000000149011612
2 18 68 4 2 424.0 322.8399963378906 0.00585602642968297 0.5 0.10000000149011612 0.3100000023841858 0.13099999725818634 3.5 0.10000000149011612
2 19 69 4 3 362.0 319.1600036621094 0.00585602642968297 0.5 0.10000000149011612 0.3100000023841858 0.13099999725818634 3.5 0.10000000149011612
2 20 69 4 4 362.0 315.6700134277344 0.00585602642968297 0.5 0.10000000149011612 0.3100000023841858 0.13099999725818634 3.5 0.10000000149011612
1 21 70 4 5 424.0 313.07000732421875 0.00585602642968297 0.5 0.10000000149011612 0.3100000023841858 0.13099999725818634 3.5 0.10000000149011612
1 22 71 4 6 362.0 309.9700012207031 0.00585602642968297 0.5 0.10000000149011612 0.3100000023841858 0.13099999725818634 3.5 0.10000000149011612
1 17 76 5 1 424.0 310.0299987792969 0.006071881856769323 0.5 0.10000000149011612 0.3100000023841858 0.13099999725818634 3.5 0.10000000149011612
1 18 77 5 2 362.0 303.92999267578125 0.006071881856769323 0.5 0.10000000149011612 0.3100000023841858 0.13099999725818634 3.5 0.10000000149011612
1 19 77 5 3 362.0 302.8399963378906 0.006071881856769323 0.5 0.10000000149011612 0.3100000023841858 0.13099999725818634 3.5 0.10000000149011612
1 20 78 5 4 424.0 302.0 0.006071881856769323 0.5 0.10000000149011612 0.3100000023841858 0.13099999725818634 3.5 0.10000000149011612
1 21 79 5 5 424.0 298.1600036621094 0.006071881856769323 0.5 0.10000000149011612 0.3100000023841858 0.13099999725818634 3.5 0.10000000149011612
1 22 80 5 6 362.0 292.4800109863281 0.006071881856769323 0.5 0.10000000149011612 0.3100000023841858 0.13099999725818634 3.5 0.10000000149011612
1 23 80 5 7 362.0 292.1400146484375 0.006071881856769323 0.5 0.10000000149011612 0.3100000023841858 0.13099999725818634 3.5 0.10000000149011612
1 24 81 5 8 424.0 290.94000244140625 0.006071881856769323 0.5 0.10000000149011612 0.3100000023841858 0.13099999725818634 3.5 0.10000000149011612
2 19 56 6 1 424.0 328.75 0.022123774513602257 0.5 0.10000000149011612 0.3100000023841858 0.13099999725818634 3.5 0.10000000149011612
2 20 55 6 2 424.0 316.6600036621094 0.022123774513602257 0.5 0.10000000149011612 0.3100000023841858 0.13099999725818634 3.5 0.10000000149011612
2 21 54 6 3 362.0 301.9100036621094 0.022123774513602257 0.5 0.10000000149011612 0.3100000023841858 0.13099999725818634 3.5 0.10000000149011612
2 22 54 6 4 362.0 291.32000732421875 0.022123774513602257 0.5 0.10000000149011612 0.3100000023841858 0.13099999725818634 3.5 0.10000000149011612
2 23 53 6 5 424.0 282.010009765625 0.022123774513602257 0.5 0.10000000149011612 0.3100000023841858 0.13099999725818634 3.5 0.10000000149011612
2 24 52 6 6 424.0 270.0400085449219 0.022123774513602257 0.5 0.10000000149011612 0.3100000023841858 0.13099999725818634 3.5 0.10000000149011612
2 25 51 6 7 424.0 265.8299865722656 0.022123774513602257 0.5 0.10000000149011612 0.3100000023841858 0.13099999725818634 3.5 0.10000000149011612
1 20 83 7 1 424.0 305.9100036621094 0.00806101132184267 0.5 0.10000000149011612 0.3100000023841858 0.13099999725818634 3.5 0.10000000149011612
1 21 82 7 2 424.0 299.92999267578125 0.00806101132184267 0.5 0.10000000149011612 0.3100000023841858 0.13099999725818634 3.5 0.10000000149011612
1 22 81 7 3 362.0 293.7099914550781 0.00806101132184267 0.5 0.10000000149011612 0.3100000023841858 0.13099999725818634 3.5 0.10000000149011612
1 23 81 7 4 362.0 292.0 0.00806101132184267 0.5 0.10000000149011612 0.3100000023841858 0.13099999725818634 3.5 0.10000000149011612
1 24 82 7 5 362.0 290.32000732421875 0.00806101132184267 0.5 0.10000000149011612 0.3100000023841858 0.13099999725818634 3.5 0.10000000149011612
1 22 72 8 1 512.0 308.1000061035156 0.0044290428049862385 0.5 0.10000000149011612 0.3100000023841858 0.13099999725818634 3.5 0.10000000149011612
1 22 73 8 2 300.0 305.6700134277344 0.0044290428049862385 0.5 0.10000000149011612 0.3100000023841858 0.13099999725818634 3.5 0.10000000149011612
1 22 74 8 3 362.0 304.70001220703125 0.0044290428049862385 0.5 0.10000000149011612 0.3100000023841858 0.13099999725818634 3.5 0.10000000149011612
1 21 75 8 4 424.0 303.3500061035156 0.0044290428049862385 0.5 0.10000000149011612 0.3100000023841858 0.13099999725818634 3.5 0.10000000149011612
1 22 76 8 5 424.0 301.67999267578125 0.0044290428049862385 0.5 0.10000000149011612 0.3100000023841858 0.13099999725818634 3.5 0.10000000149011612
1 23 77 8 6 362.0 299.54998779296875 0.0044290428049862385 0.5 0.10000000149011612 0.3100000023841858 0.13099999725818634 3.5 0.10000000149011612
1 24 77 8 7 362.0 298.2799987792969 0.0044290428049862385 0.5 0.10000000149011612 0.3100000023841858 0.13099999725818634 3.5 0.10000000149011612
1 25 78 8 8 424.0 297.1600036621094 0.0044290428049862385 0.5 0.10000000149011612 0.3100000023841858 0.13099999725818634 3.5 0.10000000149011612
1 24 79 8 9 424.0 293.3900146484375 0.0044290428049862385 0.5 0.10000000149011612 0.3100000023841858 0.13099999725818634 3.5 0.10000000149011612
1 25 80 8 10 362.0 291.42999267578125 0.0044290428049862385 0.5 0.10000000149011612 0.3100000023841858 0.13099999725818634 3.5 0.10000000149011612
1 25 81 8 11 300.0 289.25 0.0044290428049862385 0.5 0.10000000149011612 0.3100000023841858 0.13099999725818634 3.5 0.10000000149011612
2 23 8 9 1 424.0 482.0 0.015614258125424385 0.5 0.10000000149011612 0.3100000023841858 0.13099999725818634 3.5 0.10000000149011612
2 24 9 9 2 362.0 467.6099853515625 0.015614258125424385 0.5 0.10000000149011612 0.3100000023841858 0.13099999725818634 3.5 0.10000000149011612
2 25 9 9 3 362.0 455.0400085449219 0.015614258125424385 0.5 0.10000000149011612 0.3100000023841858 0.13099999725818634 3.5 0.10000000149011612
2 26 10 9 4 424.0 425.8399963378906 0.015614258125424385 0.5 0.10000000149011612 0.3100000023841858 0.13099999725818634 3.5 0.10000000149011612
2 27 11 9 5 424.0 411.17999267578125 0.015614258125424385 0.5 0.10000000149011612 0.3100000023841858 0.13099999725818634 3.5 0.10000000149011612
2 28 12 9 6 424.0 398.70001220703125 0.015614258125424385 0.5 0.10000000149011612 0.3100000023841858 0.13099999725818634 3.5 0.10000000149011612
2 29 13 9 7 362.0 398.67999267578125 0.015614258125424385 0.5 0.10000000149011612 0.3100000023841858 0.13099999725818634 3.5 0.10000000149011612
2 30 13 9 8 362.0 395.4599914550781 0.015614258125424385 0.5 0.10000000149011612 0.3100000023841858 0.13099999725818634 3.5 0.10000000149011612
2 31 14 9 9 362.0 390.25 0.015614258125424385 0.5 0.10000000149011612 0.3100000023841858 0.13099999725818634 3.5 0.10000000149011612
2 31 15 9 10 300.0 390.239990234375 0.015614258125424385 0.5 0.10000000149011612 0.3100000023841858 0.13099999725818634 3.5 0.10000000149011612
2 31 16 9 11 362.0 390.2300109863281 0.015614258125424385 0.5 0.10000000149011612 0.3100000023841858 0.13099999725818634 3.5 0.10000000149011612
2 32 17 9 12 424.0 387.7799987792969 0.015614258125424385 0.5 0.10000000149011612 0.3100000023841858 0.13099999725818634 3.5 0.10000000149011612
2 33 18 9 13 362.0 382.2200012207031 0.015614258125424385 0.5 0.10000000149011612 0.3100000023841858 0.13099999725818634 3.5 0.10000000149011612
2 33 19 9 14 300.0 379.0 0.015614258125424385 0.5 0.10000000149011612 0.3100000023841858 0.13099999725818634 3.5 0.10000000149011612
2 33 20 9 15 300.0 376.6700134277344 0.015614258125424385 0.5 0.10000000149011612 0.3100000023841858 0.13099999725818634 3.5 0.10000000149011612
2 33 21 9 16 300.0 374.9200134277344 0.015614258125424385 0.5 0.10000000149011612 0.3100000023841858 0.13099999725818634 3.5 0.10000000149011612
2 33 22 9 17 362.0 372.9800109863281 0.015614258125424385 0.5 0.10000000149011612 0.3100000023841858 0.13099999725818634 3.5 0.10000000149011612
2 34 23 9 18 424.0 370.2200012207031 0.015614258125424385 0.5 0.10000000149011612 0.3100000023841858 0.13099999725818634 3.5 0.10000000149011612
2 35 24 9 19 424.0 366.4700012207031 0.015614258125424385 0.5 0.10000000149011612 0.3100000023841858 0.13099999725818634 3.5 0.10000000149011612
2 36 25 9 20 424.0 362.6199951171875 0.015614258125424385 0.5 0.10000000149011612 0.3100000023841858 0.13099999725818634 3.5 0.10000000149011612
2 37 26 9 21 424.0 358.4599914550781 0.015614258125424385 0.5 0.10000000149011612 0.3100000023841858 0.13099999725818634 3.5 0.10000000149011612
2 23 44 10 1 424.0 417.4100036621094 0.06889963150024414 0.5 0.10000000149011612 0.3100000023841858 0.13099999725818634 3.5 0.10000000149011612
2 24 45 10 2 424.0 385.0299987792969 0.06889963150024414 0.5 0.10000000149011612 0.3100000023841858 0.13099999725818634 3.5 0.10000000149011612
2 25 46 10 3 362.0 352.6300048828125 0.06889963150024414 0.5 0.10000000149011612 0.3100000023841858 0.13099999725818634 3.5 0.10000000149011612
2 25 47 10 4 300.0 296.95001220703125 0.06889963150024414 0.5 0.10000000149011612 0.3100000023841858 0.13099999725818634 3.5 0.10000000149011612
2 25 48 10 5 300.0 280.1400146484375 0.06889963150024414 0.5 0.10000000149011612 0.3100000023841858 0.13099999725818634 3.5 0.10000000149011612
2 25 49 10 6 362.0 267.760009765625 0.06889963150024414 0.5 0.10000000149011612 0.3100000023841858 0.13099999725818634 3.5 0.10000000149011612
2 23 64 11 1 424.0 388.04998779296875 0.024956952780485153 0.5 0.10000000149011612 0.3100000023841858 0.13099999725818634 3.5 0.10000000149011612
2 24 65 11 2 362.0 361.739990234375 0.024956952780485153 0.5 0.10000000149011612 0.3100000023841858 0.13099999725818634 3.5 0.10000000149011612
2 24 66 11 3 362.0 344.8900146484375 0.024956952780485153 0.5 0.10000000149011612 0.3100000023841858 0.13099999725818634 3.5 0.10000000149011612
2 25 67 11 4 424.0 337.3500061035156 0.024956952780485153 0.5 0.10000000149011612 0.3100000023841858 0.13099999725818634 3.5 0.10000000149011612
2 24 68 11 5 362.0 328.54998779296875 0.024956952780485153 0.5 0.10000000149011612 0.3100000023841858 0.13099999725818634 3.5 0.10000000149011612
2 24 69 11 6 300.0 324.6000061035156 0.024956952780485153 0.5 0.10000000149011612 0.3100000023841858 0.13099999725818634 3.5 0.10000000149011612
2 24 70 11 7 362.0 319.5 0.024956952780485153 0.5 0.10000000149011612 0.3100000023841858 0.13099999725818634 3.5 0.10000000149011612
1 23 71 11 8 424.0 312.67999267578125 0.024956952780485153 0.5 0.10000000149011612 0.3100000023841858 0.13099999725818634 3.5 0.10000000149011612
2 25 20 12 1 300.0 549.6900024414062 0.037047382444143295 0.5 0.10000000149011612 0.3100000023841858 0.13099999725818634 3.5 0.10000000149011612
2 25 21 12 2 362.0 536.6599731445312 0.037047382444143295 0.5 0.10000000149011612 0.3100000023841858 0.13099999725818634 3.5 0.10000000149011612
2 26 22 12 3 424.0 512.1799926757812 0.037047382444143295 0.5 0.10000000149011612 0.3100000023841858 0.13099999725818634 3.5 0.10000000149011612
2 27 23 12 4 424.0 463.54998779296875 0.037047382444143295 0.5 0.10000000149011612 0.3100000023841858 0.13099999725818634 3.5 0.10000000149011612
2 28 24 12 5 362.0 400.94000244140625 0.037047382444143295 0.5 0.10000000149011612 0.3100000023841858 0.13099999725818634 3.5 0.10000000149011612
2 29 24 12 6 300.0 385.8299865722656 0.037047382444143295 0.5 0.10000000149011612 0.3100000023841858 0.13099999725818634 3.5 0.10000000149011612
2 30 24 12 7 362.0 378.010009765625 0.037047382444143295 0.5 0.10000000149011612 0.3100000023841858 0.13099999725818634 3.5 0.10000000149011612
2 31 25 12 8 362.0 374.92999267578125 0.037047382444143295 0.5 0.10000000149011612 0.3100000023841858 0.13099999725818634 3.5 0.10000000149011612
2 32 25 12 9 362.0 372.4100036621094 0.037047382444143295 0.5 0.10000000149011612 0.3100000023841858 0.13099999725818634 3.5 0.10000000149011612
2 33 24 12 10 362.0 369.54998779296875 0.037047382444143295 0.5 0.10000000149011612 0.3100000023841858 0.13099999725818634 3.5 0.10000000149011612
2 34 24 12 11 362.0 368.1000061035156 0.037047382444143295 0.5 0.10000000149011612 0.3100000023841858 0.13099999725818634 3.5 0.10000000149011612
2 35 25 12 12 424.0 364.5899963378906 0.037047382444143295 0.5 0.10000000149011612 0.3100000023841858 0.13099999725818634 3.5 0.10000000149011612
2 36 26 12 13 424.0 360.7900085449219 0.037047382444143295 0.5 0.10000000149011612 0.3100000023841858 0.13099999725818634 3.5 0.10000000149011612
2 37 27 12 14 362.0 357.3399963378906 0.037047382444143295 0.5 0.10000000149011612 0.3100000023841858 0.13099999725818634 3.5 0.10000000149011612
1 25 82 13 1 662.0 286.9200134277344 0.002120591001585126 0.5 0.10000000149011612 0.3100000023841858 0.13099999725818634 3.5 0.10000000149011612
1 26 82 13 2 300.0 285.989990234375 0.002120591001585126 0.5 0.10000000149011612 0.3100000023841858 0.13099999725818634 3.5 0.10000000149011612
1 26 83 13 3 300.0 285.7799987792969 0.002120591001585126 0.5 0.10000000149011612 0.3100000023841858 0.13099999725818634 3.5 0.10000000149011612
1 27 83 13 4 300.0 285.7699890136719 0.002120591001585126 0.5 0.10000000149011612 0.3100000023841858 0.13099999725818634 3.5 0.10000000149011612
1 28 83 13 5 300.0 285.70001220703125 0.002120591001585126 0.5 0.10000000149011612 0.3100000023841858 0.13099999725818634 3.5 0.10000000149011612
1 29 83 13 6 300.0 285.1499938964844 0.002120591001585126 0.5 0.10000000149011612 0.3100000023841858 0.13099999725818634 3.5 0.10000000149011612
1 30 83 13 7 362.0 284.010009765625 0.002120591001585126 0.5 0.10000000149011612 0.3100000023841858 0.13099999725818634 3.5 0.10000000149011612
1 31 84 13 8 362.0 280.79998779296875 0.002120591001585126 0.5 0.10000000149011612 0.3100000023841858 0.13099999725818634 3.5 0.10000000149011612
2 26 50 14 1 724.0 262.20001220703125 0.005375622306019068 0.5 0.10000000149011612 0.3100000023841858 0.13099999725818634 3.5 0.10000000149011612
1 27 50 14 2 300.0 258.3399963378906 0.005375622306019068 0.5 0.10000000149011612 0.3100000023841858 0.13099999725818634 3.5 0.10000000149011612
1 28 50 14 3 300.0 254.89999389648438 0.005375622306019068 0.5 0.10000000149011612 0.3100000023841858 0.13099999725818634 3.5 0.10000000149011612
1 29 50 14 4 300.0 253.47000122070312 0.005375622306019068 0.5 0.10000000149011612 0.3100000023841858 0.13099999725818634 3.5 0.10000000149011612
2 28 54 15 1 300.0 275.5899963378906 0.01595238223671913 0.5 0.10000000149011612 0.3100000023841858 0.13099999725818634 3.5 0.10000000149011612
2 28 53 15 2 300.0 265.32000732421875 0.01595238223671913 0.5 0.10000000149011612 0.3100000023841858 0.13099999725818634 3.5 0.10000000149011612
2 28 52 15 3 362.0 257.42999267578125 0.01595238223671913 0.5 0.10000000149011612 0.3100000023841858 0.13099999725818634 3.5 0.10000000149011612
1 29 51 15 4 424.0 253.47999572753906 0.01595238223671913 0.5 0.10000000149011612 0.3100000023841858 0.13099999725818634 3.5 0.10000000149011612
2 33 68 16 1 300.0 330.7799987792969 0.008462582714855671 0.5 0.10000000149011612 0.3100000023841858 0.13099999725818634 3.5 0.10000000149011612
2 33 69 16 2 362.0 325.44000244140625 0.008462582714855671 0.5 0.10000000149011612 0.3100000023841858 0.13099999725818634 3.5 0.10000000149011612
2 32 70 16 3 362.0 319.260009765625 0.008462582714855671 0.5 0.10000000149011612 0.3100000023841858 0.13099999725818634 3.5 0.10000000149011612
2 32 71 16 4 362.0 316.3900146484375 0.008462582714855671 0.5 0.10000000149011612 0.3100000023841858 0.13099999725818634 3.5 0.10000000149011612
2 31 72 16 5 424.0 312.19000244140625 0.008462582714855671 0.5 0.10000000149011612 0.3100000023841858 0.13099999725818634 3.5 0.10000000149011612
2 30 73 16 6 424.0 305.42999267578125 0.008462582714855671 0.5 0.10000000149011612 0.3100000023841858 0.13099999725818634 3.5 0.10000000149011612
2 29 74 16 7 362.0 302.1099853515625 0.008462582714855671 0.5 0.10000000149011612 0.3100000023841858 0.13099999725818634 3.5 0.10000000149011612
2 29 75 16 8 300.0 299.8800048828125 0.008462582714855671 0.5 0.10000000149011612 0.3100000023841858 0.13099999725818634 3.5 0.10000000149011612
1 29 76 16 9 362.0 298.5799865722656 0.008462582714855671 0.5 0.10000000149011612 0.3100000023841858 0.13099999725818634 3.5 0.10000000149011612
1 30 77 16 10 362.0 297.7300109863281 0.008462582714855671 0.5 0.10000000149011612 0.3100000023841858 0.13099999725818634 3.5 0.10000000149011612
1 30 78 16 11 300.0 296.8900146484375 0.008462582714855671 0.5 0.10000000149011612 0.3100000023841858 0.13099999725818634 3.5 0.10000000149011612
1 30 79 16 12 300.0 294.80999755859375 0.008462582714855671 0.5 0.10000000149011612 0.3100000023841858 0.13099999725818634 3.5 0.10000000149011612
1 30 80 16 13 300.0 292.55999755859375 0.008462582714855671 0.5 0.10000000149011612 0.3100000023841858 0.13099999725818634 3.5 0.10000000149011612
1 30 81 16 14 362.0 290.29998779296875 0.008462582714855671 0.5 0.10000000149011612 0.3100000023841858 0.13099999725818634 3.5 0.10000000149011612
1 31 82 16 15 362.0 287.6300048828125 0.008462582714855671 0.5 0.10000000149011612 0.3100000023841858 0.13099999725818634 3.5 0.10000000149011612
1 31 83 16 16 300.0 282.7099914550781 0.008462582714855671 0.5 0.10000000149011612 0.3100000023841858 0.13099999725818634 3.5 0.10000000149011612
1 32 83 16 17 362.0 280.79998779296875 0.008462582714855671 0.5 0.10000000149011612 0.3100000023841858 0.13099999725818634 3.5 0.10000000149011612
1 30 50 17 1 512.0 250.1999969482422 0.00357014499604702 0.5 0.10000000149011612 0.3100000023841858 0.13099999725818634 3.5 0.10000000149011612
1 31 50 17 2 300.0 248.55999755859375 0.00357014499604702 0.5 0.10000000149011612 0.3100000023841858 0.13099999725818634 3.5 0.10000000149011612
1 32 50 17 3 300.0 246.22999572753906 0.00357014499604702 0.5 0.10000000149011612 0.3100000023841858 0.13099999725818634 3.5 0.10000000149011612
2 30 88 18 1 300.0 307.29998779296875 0.01410219818353653 0.5 0.10000000149011612 0.3100000023841858 0.13099999725818634 3.5 0.10000000149011612
2 30 87 18 2 362.0 300.6300048828125 0.01410219818353653 0.5 0.10000000149011612 0.3100000023841858 0.13099999725818634 3.5 0.10000000149011612
2 31 86 18 3 424.0 294.8800048828125 0.01410219818353653 0.5 0.10000000149011612 0.3100000023841858 0.13099999725818634 3.5 0.10000000149011612
1 32 85 18 4 362.0 286.8800048828125 0.01410219818353653 0.5 0.10000000149011612 0.3100000023841858 0.13099999725818634 3.5 0.10000000149011612
2 31 43 19 1 424.0 531.010009765625 0.11486722528934479 0.5 0.10000000149011612 0.3100000023841858 0.13099999725818634 3.5 0.10000000149011612
2 32 44 19 2 362.0 462.07000732421875 0.11486722528934479 0.5 0.10000000149011612 0.3100000023841858 0.13099999725818634 3.5 0.10000000149011612
2 32 45 19 3 362.0 395.239990234375 0.11486722528934479 0.5 0.10000000149011612 0.3100000023841858 0.13099999725818634 3.5 0.10000000149011612
2 33 46 19 4 362.0 314.8699951171875 0.11486722528934479 0.5 0.10000000149011612 0.3100000023841858 0.13099999725818634 3.5 0.10000000149011612
2 33 47 19 5 300.0 275.0400085449219 0.11486722528934479 0.5 0.10000000149011612 0.3100000023841858 0.13099999725818634 3.5 0.10000000149011612
1 33 48 19 6 300.0 260.989990234375 0.11486722528934479 0.5 0.10000000149011612 0.3100000023841858 0.13099999725818634 3.5 0.10000000149011612
1 33 49 19 7 300.0 254.17999267578125 0.11486722528934479 0.5 0.10000000149011612 0.3100000023841858 0.13099999725818634 3.5 0.10000000149011612
1 32 84 20 1 450.0 280.79998779296875 9.999999974752427e-07 0.5 0.10000000149011612 0.3100000023841858 0.13099999725818634 3.5 0.10000000149011612
1 33 50 21 1 512.0 243.9199981689453 0.004539355635643005 0.5 0.10000000149011612 0.3100000023841858 0.13099999725818634 3.5 0.10000000149011612
1 34 51 21 2 424.0 242.67999267578125 0.004539355635643005 0.5 0.10000000149011612 0.3100000023841858 0.13099999725818634 3.5 0.10000000149011612
1 35 52 21 3 362.0 240.3300018310547 0.004539355635643005 0.5 0.10000000149011612 0.3100000023841858 0.13099999725818634 3.5 0.10000000149011612
1 36 52 21 4 362.0 237.91000366210938 0.004539355635643005 0.5 0.10000000149011612 0.3100000023841858 0.13099999725818634 3.5 0.10000000149011612
1 37 53 21 5 362.0 235.5399932861328 0.004539355635643005 0.5 0.10000000149011612 0.3100000023841858 0.13099999725818634 3.5 0.10000000149011612
1 38 53 21 6 362.0 234.25999450683594 0.004539355635643005 0.5 0.10000000149011612 0.3100000023841858 0.13099999725818634 3.5 0.10000000149011612
1 39 54 21 7 362.0 231.92999267578125 0.004539355635643005 0.5 0.10000000149011612 0.3100000023841858 0.13099999725818634 3.5 0.10000000149011612
1 40 54 21 8 300.0 231.4499969482422 0.004539355635643005 0.5 0.10000000149011612 0.3100000023841858 0.13099999725818634 3.5 0.10000000149011612
1 41 54 21 9 300.0 231.44000244140625 0.004539355635643005 0.5 0.10000000149011612 0.3100000023841858 0.13099999725818634 3.5 0.10000000149011612
1 42 54 21 10 300.0 230.47000122070312 0.004539355635643005 0.5 0.10000000149011612 0.3100000023841858 0.13099999725818634 3.5 0.10000000149011612
1 43 54 21 11 300.0 227.5399932861328 0.004539355635643005 0.5 0.10000000149011612 0.3100000023841858 0.13099999725818634 3.5 0.10000000149011612
1 44 54 21 12 300.0 224.97999572753906 0.004539355635643005 0.5 0.10000000149011612 0.3100000023841858 0.13099999725818634 3.5 0.10000000149011612
1 45 54 21 13 300.0 223.42999267578125 0.004539355635643005 0.5 0.10000000149011612 0.3100000023841858 0.13099999725818634 3.5 0.10000000149011612
1 46 54 21 14 300.0 221.24000549316406 0.004539355635643005 0.5 0.10000000149011612 0.3100000023841858 0.13099999725818634 3.5 0.10000000149011612
1 47 54 21 15 300.0 219.27999877929688 0.004539355635643005 0.5 0.10000000149011612 0.3100000023841858 0.13099999725818634 3.5 0.10000000149011612
1 48 54 21 16 300.0 217.8800048828125 0.004539355635643005 0.5 0.10000000149011612 0.3100000023841858 0.13099999725818634 3.5 0.10000000149011612
1 49 54 21 17 300.0 215.86000061035156 0.004539355635643005 0.5 0.10000000149011612 0.3100000023841858 0.13099999725818634 3.5 0.10000000149011612
1 50 54 21 18 300.0 214.82000732421875 0.004539355635643005 0.5 0.10000000149011612 0.3100000023841858 0.13099999725818634 3.5 0.10000000149011612
1 51 54 21 19 300.0 213.64999389648438 0.004539355635643005 0.5 0.10000000149011612 0.3100000023841858 0.13099999725818634 3.5 0.10000000149011612
1 52 54 21 20 362.0 213.47000122070312 0.004539355635643005 0.5 0.10000000149011612 0.3100000023841858 0.13099999725818634 3.5 0.10000000149011612
1 33 84 22 1 512.0 279.6099853515625 0.0006896521663293242 0.5 0.10000000149011612 0.3100000023841858 0.13099999725818634 3.5 0.10000000149011612
1 34 84 22 2 300.0 279.04998779296875 0.0006896521663293242 0.5 0.10000000149011612 0.3100000023841858 0.13099999725818634 3.5 0.10000000149011612
2 33 98 23 1 424.0 418.510009765625 0.03267550468444824 0.5 0.10000000149011612 0.3100000023841858 0.13099999725818634 3.5 0.10000000149011612
2 34 99 23 2 424.0 384.0199890136719 0.03267550468444824 0.5 0.10000000149011612 0.3100000023841858 0.13099999725818634 3.5 0.10000000149011612
2 35 98 23 3 362.0 361.92999267578125 0.03267550468444824 0.5 0.10000000149011612 0.3100000023841858 0.13099999725818634 3.5 0.10000000149011612
2 36 98 23 4 300.0 351.8500061035156 0.03267550468444824 0.5 0.10000000149011612 0.3100000023841858 0.13099999725818634 3.5 0.10000000149011612
2 37 98 23 5 300.0 344.42999267578125 0.03267550468444824 0.5 0.10000000149011612 0.3100000023841858 0.13099999725818634 3.5 0.10000000149011612
2 38 98 23 6 362.0 337.54998779296875 0.03267550468444824 0.5 0.10000000149011612 0.3100000023841858 0.13099999725818634 3.5 0.10000000149011612
2 39 97 23 7 424.0 326.8999938964844 0.03267550468444824 0.5 0.10000000149011612 0.3100000023841858 0.13099999725818634 3.5 0.10000000149011612
2 40 96 23 8 424.0 319.8299865722656 0.03267550468444824 0.5 0.10000000149011612 0.3100000023841858 0.13099999725818634 3.5 0.10000000149011612
2 40 74 24 1 300.0 343.29998779296875 0.014893359504640102 0.5 0.10000000149011612 0.3100000023841858 0.13099999725818634 3.5 0.10000000149011612
2 39 74 24 2 300.0 334.8800048828125 0.014893359504640102 0.5 0.10000000149011612 0.3100000023841858 0.13099999725818634 3.5 0.10000000149011612
2 38 74 24 3 362.0 328.8900146484375 0.014893359504640102 0.5 0.10000000149011612 0.3100000023841858 0.13099999725818634 3.5 0.10000000149011612
2 37 75 24 4 424.0 323.17999267578125 0.014893359504640102 0.5 0.10000000149011612 0.3100000023841858 0.13099999725818634 3.5 0.10000000149011612
2 36 76 24 5 362.0 310.9800109863281 0.014893359504640102 0.5 0.10000000149011612 0.3100000023841858 0.13099999725818634 3.5 0.10000000149011612
2 36 77 24 6 362.0 303.1300048828125 0.014893359504640102 0.5 0.10000000149011612 0.3100000023841858 0.13099999725818634 3.5 0.10000000149011612
1 35 78 24 7 424.0 296.7200012207031 0.014893359504640102 0.5 0.10000000149011612 0.3100000023841858 0.13099999725818634 3.5 0.10000000149011612
1 34 79 24 8 362.0 293.30999755859375 0.014893359504640102 0.5 0.10000000149011612 0.3100000023841858 0.13099999725818634 3.5 0.10000000149011612
1 34 80 24 9 300.0 291.989990234375 0.014893359504640102 0.5 0.10000000149011612 0.3100000023841858 0.13099999725818634 3.5 0.10000000149011612
1 34 81 24 10 362.0 287.94000244140625 0.014893359504640102 0.5 0.10000000149011612 0.3100000023841858 0.13099999725818634 3.5 0.10000000149011612
1 35 82 24 11 362.0 284.2099914550781 0.014893359504640102 0.5 0.10000000149011612 0.3100000023841858 0.13099999725818634 3.5 0.10000000149011612
1 35 83 24 12 300.0 280.45001220703125 0.014893359504640102 0.5 0.10000000149011612 0.3100000023841858 0.13099999725818634 3.5 0.10000000149011612
1 35 84 25 1 512.0 277.79998779296875 0.002184697426855564 0.5 0.10000000149011612 0.3100000023841858 0.13099999725818634 3.5 0.10000000149011612
1 36 85 25 2 362.0 276.4100036621094 0.002184697426855564 0.5 0.10000000149011612 0.3100000023841858 0.13099999725818634 3.5 0.10000000149011612
1 37 85 25 3 300.0 274.54998779296875 0.002184697426855564 0.5 0.10000000149011612 0.3100000023841858 0.13099999725818634 3.5 0.10000000149011612
1 38 85 25 4 362.0 273.25 0.002184697426855564 0.5 0.10000000149011612 0.3100000023841858 0.13099999725818634 3.5 0.10000000149011612
1 39 84 25 5 362.0 272.8299865722656 0.002184697426855564 0.5 0.10000000149011612 0.3100000023841858 0.13099999725818634 3.5 0.10000000149011612
1 40 84 25 6 362.0 272.79998779296875 0.002184697426855564 0.5 0.10000000149011612 0.3100000023841858 0.13099999725818634 3.5 0.10000000149011612
1 41 85 25 7 424.0 272.0400085449219 0.002184697426855564 0.5 0.10000000149011612 0.3100000023841858 0.13099999725818634 3.5 0.10000000149011612