[General_info]
steady_state_name = rr_ss
tran_name = rr_tr
work_space = C:\work\projects\russian_river\model\RR_GSFLOW\MODFLOW\
modflow_exe = C:\work\projects\russian_river\model\RR_GSFLOW\MODFLOW\bin\MODFLOW-NWT_1.2.0\bin\MODFLOW-NWT_64.exe

[GeoSpace]
origin_x = 0.0
origin_y = 0.0
origin_z = 0.0

[DIS]
hru_shp = C:\work\projects\russian_river\model\RR_GSFLOW\MODFLOW\init_files\hru_shp_sfr.shp
l_units = m
nlayers = 3
grid_file = grid_info.npy

[Geo_Framework]
filename = C:\work\projects\russian_river\model\RR_GSFLOW\MODFLOW\init_files\RR_gfm_grid_1.9_gsflow.shp
top_layer1_field = YF_tp
thickness_layer1_field = YF_tk
top_layer2_field = OF_tp
thickness_layer2_field = OF_tk
top_layer3_field = Fbrk_tp
thickness_layer3_field = Fbrk_tk
zones_laye1 = YF_zone
zones_laye2 = OF_zone
zones_laye3 = Fbrk_zone
hfb_file = C:\work\projects\russian_river\model\RR_GSFLOW\MODFLOW\init_files\hru_faults.shp

[Budget_info]
budget_excel_file = C:\work\projects\russian_river\model\RR_GSFLOW\MODFLOW\init_files\budget.xlsx

[SFR]
flow_date_file = C:\work\projects\russian_river\model\RR_GSFLOW\MODFLOW\init_files\sfr_flow_depth_tabs.npy
str_flow_acc = C:\work\projects\russian_river\model\RR_GSFLOW\MODFLOW\init_files\stream_network_flo_acc.shp
mannings_roughness = 0.04
min_slope = 0.0001
min_width = 5.0
max_width = 200.0
gate_iseg =  446, 448, 459, 461, 463, 464, 466, 468, 471, 473, 475
spill_iseg = 447, 449, 458, 460, 462, 465, 467, 469, 470, 472, 474
div_iseg = []
inflow_segs = 5, 408
sfr_info_file = C:\work\projects\russian_river\model\RR_GSFLOW\MODFLOW\init_files\SFR_inflows.xlsx
gage_file = C:\work\projects\russian_river\model\RR_GSFLOW\MODFLOW\init_files\gage_hru.shp
ag_farms_file = C:\work\projects\russian_river\model\RR_GSFLOW\MODFLOW\init_files\ss_ag_farms.csv
crop_hru = C:\work\projects\russian_river\model\RR_GSFLOW\MODFLOW\init_files\crop_hru.shp
agg_pods_fields = C:\work\projects\russian_river\model\RR_GSFLOW\MODFLOW\init_files\POD_OUT.csv
stat_board_pods = C:\work\projects\russian_river\model\RR_GSFLOW\MODFLOW\init_files\State_boardPODS.shp
sfr_lidar = C:\work\projects\russian_river\model\RR_GSFLOW\MODFLOW\init_files\sfr_lidar.csv

[LAK]
lake_point_file = C:\work\projects\russian_river\model\RR_GSFLOW\MODFLOW\init_files\USA_dams_RR.shp
lake_hru_file = C:\work\projects\russian_river\model\RR_GSFLOW\MODFLOW\init_files\hru_lakes.shp
bathymetry_file = C:\work\projects\russian_river\model\RR_GSFLOW\MODFLOW\init_files\Bathmetery.xls

[Wells]
flowrate = C:\work\projects\russian_river\model\RR_GSFLOW\MODFLOW\init_files\Pumping_temp_pop_filled_AF_per_month_source.csv
wellhru = C:\work\projects\russian_river\model\RR_GSFLOW\MODFLOW\init_files\hru_wells2.shp
WellFileReady = C:\work\projects\russian_river\model\RR_GSFLOW\MODFLOW\init_files\Well_Info_ready_for_Model.csv

[HOB]
hob_file = C:\work\projects\russian_river\model\RR_GSFLOW\MODFLOW\init_files\hru_obs2.shp
hob_file_old = C:\work\projects\russian_river\model\RR_GSFLOW\MODFLOW\init_files\hru_hob.shp
hob_info = C:\work\projects\russian_river\model\RR_GSFLOW\MODFLOW\init_files\FINAL_All_RR_WL_wells_merge_non_near_and_near_master_sites_no_dupes.shp
Build_hob = 0

[GHB]
hru_ghb_file = C:\work\projects\russian_river\model\RR_GSFLOW\MODFLOW\init_files\ghb_hru.shp

[RUBBER_DAM]
seg_id_under_rubber_dam = 402, 395, 408
new_outseg_under_rubber_dam = -12, -12, 411
new_iupseg_under_rubber_dam = 0, 0, 0
rubber_dam_lake_id = 12
rubber_dam_hru_row_gate = 335
rubber_dam_hru_col_gate = 148
rubber_dam_hru_row_spill = 334
rubber_dam_hru_col_spill = 147
rubber_dam_outseg_gate_spill = 408
rubber_dam_water_surface_elevation_file = C:\work\projects\russian_river\model\RR_GSFLOW\MODFLOW\init_files\RubberDam_Elevation.xlsx
rubber_dam_lake = C:\work\projects\russian_river\model\RR_GSFLOW\MODFLOW\init_files\rubber_dam_lake.shp
rubber_dam_min_lake_stage = 8.2296
rubber_dam_max_lake_stage = 11.5824
inflated_dates = 2008-04-12,2009-07-24,2010-07-01,2011-05-11,2012-06-02,2013-06-25,2017-06-20,2018-05-24,2019-06-01,2020-03-03
deflated_dates = 2008-12-23,2009-12-18,2010-12-14,2012-01-20,2012-11-27,2014-02-20,2018-01-07,2019-01-04,2019-12-16,2020-12-31
average_inflated_date = -06-15
average_deflated_date = -12-15
rubber_dam_spillway_tabfile = rubber_dam_spillway_outflow.dat
rubber_dam_spillway_tabfile_ss = rubber_dam_spillway_outflow_ss.dat
rubber_dam_gate_tabfile = rubber_dam_gate_outflow.dat
rubber_dam_gate_tabfile_ss = rubber_dam_gate_outflow_ss.dat
rubber_dam_pond_tabfile = rubber_dam_pond_outflow.dat
rubber_dam_pond_tabfile_ss = rubber_dam_pond_outflow_ss.dat
rubber_dam_spillway_tabfile_ss_flow = 1e-5
rubber_dam_gate_tabfile_ss_flow = 0
rubber_dam_pond_tabfile_flow = 0
rubber_dam_pond_tabfile_ss_flow = 0
width_trapezoid_top = 50
width_trapezoid_base = 40
length_channel = 2563
bathy_file_name_root = rubber_dam_lake.dat
pond_outflow_hru_row = 335
pond_outflow_hru_col = 146
pond_outflow_width = 10
 