[General_info]
steady_state_name = rr_ss
tran_name = rr_tr
work_space = D:\Workspace\projects\RussianRiver\modflow\model_files\Modflow
modflow_exe = D:\Workspace\bin\MODFLOW-NWT_1.1.3\bin\MODFLOW-NWT.exe


[GeoSpace]
origin_x = 0.0
origin_y = 0.0
origin_z = 0.0

[DIS]
hru_shp = D:\Workspace\projects\RussianRiver\GIS\hru_shp_sfr.shp
l_units = m
nlayers = 3
grid_file = grid_info.npy

[Geo_Framework]
filename = D:\Workspace\projects\RussianRiver\Data\geology\RR_gfm_grid_1.9_gsflow.shp
top_layer1_field = YF_tp
thickness_layer1_field = YF_tk
top_layer2_field = OF_tp
thickness_layer2_field = OF_tk
top_layer3_field = Fbrk_tp
thickness_layer3_field = Fbrk_tk
zones_laye1 = YF_zone
zones_laye2 = OF_zone
zones_laye3 = Fbrk_zone
hfb_file = D:\Workspace\projects\RussianRiver\Data\geology\faults\hru_faults.shp

[Budget_info]
budget_excel_file = D:\Workspace\projects\RussianRiver\modflow\other_files\budget.xlsx

[SFR]
flow_date_file = D:\Workspace\projects\RussianRiver\modflow\scrtipts\sfr_flow_depth_tabs.npy
str_flow_acc = D:\Workspace\projects\RussianRiver\Data\Streams\flow_accumulation\stream_network_flo_acc.shp
mannings_roughness = 0.04
min_slope = 0.0001
min_width = 5.0
max_width = 200.0
gate_iseg =  446, 448, 459,461,463,464,466,468,471,473,475
spill_iseg = 447,449, 458, 460,462,465,467,469,470,472,474
div_iseg = []
inflow_segs = 5, 408
sfr_info_file = D:\Workspace\projects\RussianRiver\modflow\other_files\surface_water_stresses\SFR_inflows.xlsx
gage_file = D:\Workspace\projects\RussianRiver\GIS\gage_hru.shp
ag_farms_file = D:\Workspace\projects\RussianRiver\modflow\other_files\ss_ag_farms.csv
crop_hru = D:\Workspace\projects\RussianRiver\Data\gis\crop_hru.shp
agg_pods_fields = D:\Workspace\projects\RussianRiver\Data\Pumping\Agg_pumping\PODs_Script\OUT_DATA\POD_OUT.csv
stat_board_pods = D:\Workspace\projects\RussianRiver\GIS\State_boardPODS.shp

[LAK]
lake_point_file = D:\Workspace\projects\RussianRiver\Data\gis\USA_dams_RR.shp
lake_hru_file = D:\Workspace\projects\RussianRiver\Data\gis\hru_lakes.shp
bathymetry_file = D:\Workspace\projects\RussianRiver\Data\Lakes\Bathmetery.xls

[Wells]
flowrate = D:\Workspace\projects\RussianRiver\modflow\other_files\Pumping_temp_pop_filled_AF_per_month_source.csv
wellhru = D:\Workspace\projects\RussianRiver\GIS\hru_wells2.shp
WellFileReady = D:\Workspace\projects\RussianRiver\modflow\other_files\Well_Info_ready_for_Model.csv

[HOB]
hob_file = D:\Workspace\projects\RussianRiver\GIS\hru_obs2.shp
hob_file_old = D:\Workspace\projects\RussianRiver\Data\WaterTable\hru_hob.shp
hob_info = D:\Workspace\projects\RussianRiver\Data\WaterTable\Final_Clean_datav_6_10_19\FINAL_All_RR_WL_wells_merge_non_near_and_near_master_sites_no_dupes.shp
Build_hob = 0

[GHB]
hru_ghb_file = D:\Workspace\projects\RussianRiver\GIS\ghb_hru.shp