# HOB package for MODFLOW-NWT generated by Flopy 3.3.5
       171         0         0      1018     -9999
         1
HO_0                    3        347        129          1                  0.0    -0.3599     0.1744    64.4817   # DATASET 3 - Observation 1
HO_1                    3        366        122          1                  0.0     0.4825     0.0641   318.0724   # DATASET 3 - Observation 2
HO_2                    2        373        147          1                  0.0     0.2282    -0.2041    87.7736   # DATASET 3 - Observation 3
HO_3                    1        358        143          1                  0.0    -0.1540     0.1118    35.2904   # DATASET 3 - Observation 4
HO_4                    1        351         99          1                  0.0     0.3474    -0.3930    -1.7082   # DATASET 3 - Observation 5
HO_5                    2        344        116          1                  0.0    -0.4132     0.4002    -4.3273   # DATASET 3 - Observation 6
HO_6                    2        374        149          1                  0.0     0.1560     0.2583    62.5951   # DATASET 3 - Observation 7
HO_7                    3        387        152          1                  0.0     0.3874    -0.1487   181.8877   # DATASET 3 - Observation 8
HO_8                    1        372        152          1                  0.0     0.2233    -0.3737    44.1491   # DATASET 3 - Observation 9
HO_9                    2        368        159          1                  0.0     0.0319     0.3324    50.6732   # DATASET 3 - Observation 10
HO_10                   2        359        155          1                  0.0     0.1621    -0.0172    48.5327   # DATASET 3 - Observation 11
HO_11                   2        353        152          1                  0.0     0.4698     0.4727    45.7059   # DATASET 3 - Observation 12
HO_12                   1        293        147          1                  0.0    -0.4371     0.1376    22.6650   # DATASET 3 - Observation 13
HO_13                   2        329        147          1                  0.0    -0.4893     0.0111    13.9224   # DATASET 3 - Observation 14
HO_14                   3        304        125          1                  0.0     0.0966    -0.4624   352.7144   # DATASET 3 - Observation 15
HO_15                   2        334         94          1                  0.0    -0.4938    -0.0975    13.7762   # DATASET 3 - Observation 16
HO_16                   2        280        146          1                  0.0    -0.0635    -0.2245    61.2777   # DATASET 3 - Observation 17
HO_17                   1        337        144          1                  0.0    -0.3118    -0.4852     5.0497   # DATASET 3 - Observation 18
HO_18                   2        289        180          1                  0.0    -0.4858    -0.4281    31.3542   # DATASET 3 - Observation 19
HO_19                   1        291        177          1                  0.0     0.2332    -0.1701    38.1184   # DATASET 3 - Observation 20
HO_20                   2        325        158          1                  0.0     0.1170    -0.1679    17.7966   # DATASET 3 - Observation 21
HO_21                   3        293        157          1                  0.0     0.4200    -0.0683    33.4481   # DATASET 3 - Observation 22
HO_22                   2        295        156          1                  0.0     0.0147    -0.4443    17.1011   # DATASET 3 - Observation 23
HO_23                   1        327        155          1                  0.0     0.2422    -0.0659    13.6744   # DATASET 3 - Observation 24
HO_24                   2        323        155          1                  0.0     0.3207     0.4802    12.6471   # DATASET 3 - Observation 25
HO_25                   1        322        155          1                  0.0    -0.2695     0.3325    12.2653   # DATASET 3 - Observation 26
HO_26                   2        322        155          1                  0.0    -0.2695     0.3325    11.3875   # DATASET 3 - Observation 27
HO_27                   1        313        156          1                  0.0    -0.2983    -0.3786    14.0961   # DATASET 3 - Observation 28
HO_28                   1        310        155          1                  0.0     0.0777    -0.0293    17.9632   # DATASET 3 - Observation 29
HO_29                   1        310        157          1                  0.0     0.0248    -0.1082    14.6782   # DATASET 3 - Observation 30
HO_30                   1        301        152          1                  0.0     0.0963    -0.0087    20.8329   # DATASET 3 - Observation 31
HO_31                   2        282        148          1                  0.0     0.4110     0.4626    28.0874   # DATASET 3 - Observation 32
HO_32                   2        298        187          1                  0.0     0.2488     0.2763    11.4575   # DATASET 3 - Observation 33
HO_33                   2        294        181          1                  0.0     0.2712    -0.2579    33.2889   # DATASET 3 - Observation 34
HO_34                   2        285        176          1                  0.0     0.1835    -0.0095    45.9128   # DATASET 3 - Observation 35
HO_35                   2        284        181          1                  0.0    -0.2753    -0.3933    38.6349   # DATASET 3 - Observation 36
HO_36                   3        334        148          1                  0.0    -0.2381    -0.2058     1.6661   # DATASET 3 - Observation 37
HO_37                   2        330        152          1                  0.0     0.2420     0.3523    11.3069   # DATASET 3 - Observation 38
HO_38                   2        291        206          1                  0.0     0.4676     0.0677   131.2615   # DATASET 3 - Observation 39
HO_39                   1        284        204          1                  0.0    -0.4309     0.3364   123.6382   # DATASET 3 - Observation 40
HO_40                   3        253        144          1                  0.0     0.0099     0.2711    64.1258   # DATASET 3 - Observation 41
HO_41                   2        257        142          1                  0.0     0.2733     0.1496    58.3638   # DATASET 3 - Observation 42
HO_42                   3        257        135          1                  0.0     0.2492    -0.1602    94.5302   # DATASET 3 - Observation 43
HO_43                   1        268        130          1                  0.0    -0.0800    -0.1283    43.0930   # DATASET 3 - Observation 44
HO_44                   3        274        129          1                  0.0    -0.3901     0.4958    62.3201   # DATASET 3 - Observation 45
HO_45                   1        259        125          1                  0.0     0.3948    -0.4472    53.6319   # DATASET 3 - Observation 46
HO_46                   1        221        115          1                  0.0     0.0736    -0.1097    88.7402   # DATASET 3 - Observation 47
HO_47                   3        229        110          1                  0.0    -0.3239    -0.0151   101.2573   # DATASET 3 - Observation 48
HO_48                   3        223         92          1                  0.0    -0.2650    -0.3449   320.3262   # DATASET 3 - Observation 49
HO_49                   1        259        123          1                  0.0     0.0412     0.4641    51.1257   # DATASET 3 - Observation 50
HO_50                   1        258        125          1                  0.0     0.3997    -0.2548    57.7277   # DATASET 3 - Observation 51
HO_51                   1        231        118          1                  0.0     0.0288    -0.0979    82.6754   # DATASET 3 - Observation 52
HO_52                   2        224        115          1                  0.0    -0.3706     0.1580    84.2118   # DATASET 3 - Observation 53
HO_53                   1        227        114          1                  0.0     0.0353     0.3114    84.3704   # DATASET 3 - Observation 54
HO_54                   1        256        147          1                  0.0     0.3563     0.3431    54.2293   # DATASET 3 - Observation 55
HO_55                   3        249        139          1                  0.0     0.3122     0.2223    72.8599   # DATASET 3 - Observation 56
HO_56                   1        269        156          1                  0.0     0.0410     0.3555    48.5109   # DATASET 3 - Observation 57
HO_57                   2        271        166          1                  0.0     0.4336    -0.3388    49.4831   # DATASET 3 - Observation 58
HO_58                   2        278        170          1                  0.0    -0.3869     0.4912    41.6579   # DATASET 3 - Observation 59
HO_59                   2        276        168          1                  0.0    -0.3798     0.3409    44.6825   # DATASET 3 - Observation 60
HO_60                   2        274        157          1                  0.0    -0.0875    -0.4868    48.4789   # DATASET 3 - Observation 61
HO_61                   2        270        153          1                  0.0    -0.1967    -0.2702    49.1328   # DATASET 3 - Observation 62
HO_62                   2        267        164          1                  0.0    -0.1370    -0.2866    59.7209   # DATASET 3 - Observation 63
HO_63                   2        265        157          1                  0.0    -0.4499     0.3164    55.7834   # DATASET 3 - Observation 64
HO_64                   3        195         84          1                  0.0    -0.4973     0.2422   328.0388   # DATASET 3 - Observation 65
HO_65                   1        161         84          1                  0.0    -0.1280    -0.3773   139.3019   # DATASET 3 - Observation 66
HO_66                   3        172         81          1                  0.0     0.2432    -0.0466   336.7943   # DATASET 3 - Observation 67
HO_67                   1        155         80          1                  0.0    -0.3216    -0.1560   147.7064   # DATASET 3 - Observation 68
HO_68                   3        163         79          1                  0.0    -0.2386     0.3402   149.3179   # DATASET 3 - Observation 69
HO_69                   1        161         84          1                  0.0    -0.4889     0.3386   142.6002   # DATASET 3 - Observation 70
HO_70                   1        161         84          1                  0.0    -0.4889     0.3386   141.7539   # DATASET 3 - Observation 71
HO_71                   3        211        146          1                  0.0    -0.2240    -0.0904   544.4675   # DATASET 3 - Observation 72
HO_72                   3        158        100          1                  0.0     0.0880     0.4520   233.8426   # DATASET 3 - Observation 73
HO_73                   3        154         99          1                  0.0     0.3886     0.4114   237.9568   # DATASET 3 - Observation 74
HO_74                   2        157         99          1                  0.0     0.4708     0.1691   217.9897   # DATASET 3 - Observation 75
HO_75                   3        157         99          1                  0.0     0.4707     0.0889   220.9583   # DATASET 3 - Observation 76
HO_76                   3        155         99          1                  0.0    -0.3034     0.0905   254.1422   # DATASET 3 - Observation 77
HO_77                   3        159         99          1                  0.0     0.0119     0.0078   229.5986   # DATASET 3 - Observation 78
HO_78                   3        159         99          1                  0.0     0.4228    -0.0727   231.0314   # DATASET 3 - Observation 79
HO_79                   3        160         99          1                  0.0    -0.4745    -0.1529   226.7155   # DATASET 3 - Observation 80
HO_80                   3        154         99          1                  0.0    -0.1255    -0.1496   240.2009   # DATASET 3 - Observation 81
HO_81                   3        157         99          1                  0.0     0.1622    -0.3921   212.7532   # DATASET 3 - Observation 82
HO_82                   3        157         98          1                  0.0    -0.0436     0.1268   208.4447   # DATASET 3 - Observation 83
HO_83                   3        156         98          1                  0.0     0.2371    -0.0332   200.3513   # DATASET 3 - Observation 84
HO_84                   2        158         97          1                  0.0    -0.2220     0.4846   197.5456   # DATASET 3 - Observation 85
HO_85                   3        157         97          1                  0.0     0.0584    -0.0763   185.9509   # DATASET 3 - Observation 86
HO_86                   2        154         97          1                  0.0     0.3869    -0.2349   222.4695   # DATASET 3 - Observation 87
HO_87                   3        156         96          1                  0.0    -0.1750     0.2829   233.8233   # DATASET 3 - Observation 88
HO_88                   3        156         96          1                  0.0    -0.1750     0.2027   230.1321   # DATASET 3 - Observation 89
HO_89                   3        156         96          1                  0.0    -0.2778     0.1226   233.2148   # DATASET 3 - Observation 90
HO_90                   3        157         96          1                  0.0    -0.1478    -0.1188   168.0038   # DATASET 3 - Observation 91
HO_91                   3        156         96          1                  0.0     0.4412    -0.1185   205.0950   # DATASET 3 - Observation 92
HO_92                   3        157         96          1                  0.0    -0.1480    -0.3594   178.1750   # DATASET 3 - Observation 93
HO_93                   3        157         96          1                  0.0    -0.4562    -0.3592   174.2324   # DATASET 3 - Observation 94
HO_94                   3        165         94          1                  0.0    -0.4433    -0.0495   187.1701   # DATASET 3 - Observation 95
HO_95                   2        161         92          1                  0.0     0.2676     0.4290   164.2408   # DATASET 3 - Observation 96
HO_96                   1        161         92          1                  0.0     0.1646     0.1082   116.1296   # DATASET 3 - Observation 97
HO_97                   2        157         88          1                  0.0     0.1864     0.4999   159.9772   # DATASET 3 - Observation 98
HO_98                   1        129         73          1                  0.0    -0.2244    -0.2523   154.2489   # DATASET 3 - Observation 99
HO_99                   1        123         70          1                  0.0     0.0168    -0.2068   163.7900   # DATASET 3 - Observation 100
HO_100                  2        105         68          1                  0.0     0.3227     0.4716   193.2596   # DATASET 3 - Observation 101
HO_101                  2        116         63          1                  0.0     0.4915    -0.3213   159.4641   # DATASET 3 - Observation 102
HO_102                  2        116         63          1                  0.0     0.4401    -0.3693   161.0308   # DATASET 3 - Observation 103
HO_103                  1         94         60          1                  0.0    -0.1835    -0.3183   175.7745   # DATASET 3 - Observation 104
HO_104                  2        112         67          1                  0.0     0.0619    -0.3726   169.5896   # DATASET 3 - Observation 105
HO_105                  2        112         67          1                  0.0    -0.4976    -0.3134   168.1524   # DATASET 3 - Observation 106
HO_106                  2        110         65          1                  0.0     0.0264    -0.1180   166.3818   # DATASET 3 - Observation 107
HO_107                  1        110         66          1                  0.0    -0.3417    -0.1634   169.8331   # DATASET 3 - Observation 108
HO_108                  1        105         61          1                  0.0    -0.1049    -0.1971   170.8366   # DATASET 3 - Observation 109
HO_109                  1        104         62          1                  0.0     0.0858    -0.4687   171.7275   # DATASET 3 - Observation 110
HO_110                  1        104         62          1                  0.0    -0.1344    -0.3208   170.6526   # DATASET 3 - Observation 111
HO_111                  2        102         59          1                  0.0    -0.0462    -0.4038   170.9657   # DATASET 3 - Observation 112
HO_112                  1        101         60          1                  0.0    -0.1721    -0.1309   171.5145   # DATASET 3 - Observation 113
HO_113                  1         98         57          1                  0.0     0.0509     0.0821   168.6435   # DATASET 3 - Observation 114
HO_114                  1        101         59          1                  0.0     0.2839    -0.4035   171.8275   # DATASET 3 - Observation 115
HO_115                  3        153         99          1                  0.0    -0.0503    -0.3896   247.0602   # DATASET 3 - Observation 116
HO_116                  3        153         98          1                  0.0     0.1550     0.2895   237.0235   # DATASET 3 - Observation 117
HO_117                  3        153         98          1                  0.0     0.0521     0.0490   241.5103   # DATASET 3 - Observation 118
HO_118                  3        154         98          1                  0.0    -0.4345    -0.3523   225.8501   # DATASET 3 - Observation 119
HO_119                  3        153         98          1                  0.0     0.3600    -0.4324   238.0946   # DATASET 3 - Observation 120
HO_120                  2        150         90          1                  0.0    -0.2417     0.3539   250.4782   # DATASET 3 - Observation 121
HO_121                  3        148         88          1                  0.0     0.2152     0.4311   234.8469   # DATASET 3 - Observation 122
HO_122                  2         59         64          1                  0.0    -0.3159    -0.0102   313.7323   # DATASET 3 - Observation 123
HO_123                  2         59         63          1                  0.0    -0.3171     0.3506   245.5637   # DATASET 3 - Observation 124
HO_124                  3         47         62          1                  0.0     0.1729     0.4944   262.0247   # DATASET 3 - Observation 125
HO_125                  2         58         62          1                  0.0     0.3716    -0.1669   274.6919   # DATASET 3 - Observation 126
HO_126                  2         50         58          1                  0.0     0.2460    -0.0645   235.6924   # DATASET 3 - Observation 127
HO_127                  2         57         58          1                  0.0     0.4381    -0.3196   225.5247   # DATASET 3 - Observation 128
HO_128                  2         59         58          1                  0.0    -0.3292    -0.4821   182.6188   # DATASET 3 - Observation 129
HO_129                  2         44         58          1                  0.0    -0.4130    -0.2403   242.2918   # DATASET 3 - Observation 130
HO_130                  2         63         56          1                  0.0    -0.1199    -0.0895   202.6027   # DATASET 3 - Observation 131
HO_131                  1         48         56          1                  0.0    -0.2249    -0.2156   225.1092   # DATASET 3 - Observation 132
HO_132                  1         54         56          1                  0.0    -0.0601    -0.3891   210.2774   # DATASET 3 - Observation 133
HO_133                  1         41         55          1                  0.0    -0.3159     0.3211   237.8208   # DATASET 3 - Observation 134
HO_134                  1         41         55          1                  0.0    -0.2133     0.2411   238.0400   # DATASET 3 - Observation 135
HO_135                  2         59         55          1                  0.0     0.1792     0.1197   203.6793   # DATASET 3 - Observation 136
HO_136                  1         50         55          1                  0.0     0.1364    -0.0995   216.1162   # DATASET 3 - Observation 137
HO_137                  1         40         55          1                  0.0    -0.2417    -0.1558   233.1773   # DATASET 3 - Observation 138
HO_138                  2         52         54          1                  0.0     0.2913    -0.3825   207.4289   # DATASET 3 - Observation 139
HO_139                  2         58         52          1                  0.0     0.3506     0.3251   239.9909   # DATASET 3 - Observation 140
HO_140                  2         58         52          1                  0.0     0.0422     0.2459   239.3803   # DATASET 3 - Observation 141
HO_141                  1         43         51          1                  0.0    -0.2714    -0.1551   243.2228   # DATASET 3 - Observation 142
HO_142                  3         39         51          1                  0.0    -0.4846    -0.3046   216.3937   # DATASET 3 - Observation 143
HO_143                  2         34         50          1                  0.0    -0.3148     0.3878   244.6691   # DATASET 3 - Observation 144
HO_144                  2         56         50          1                  0.0     0.4943    -0.4668   203.2054   # DATASET 3 - Observation 145
HO_145                  1         56         50          1                  0.0     0.3915    -0.4665   220.3212   # DATASET 3 - Observation 146
HO_146                  3         29         49          1                  0.0     0.4697     0.3606   258.3286   # DATASET 3 - Observation 147
HO_147                  3         39         49          1                  0.0    -0.0780    -0.0621   257.9916   # DATASET 3 - Observation 148
HO_148                  1         53         49          1                  0.0     0.2040    -0.3374   224.6976   # DATASET 3 - Observation 149
HO_149                  2         53         48          1                  0.0     0.2346     0.4725   215.0692   # DATASET 3 - Observation 150
HO_150                  1         49         47          1                  0.0    -0.2174     0.4756   248.1864   # DATASET 3 - Observation 151
HO_151                  2         48         47          1                  0.0     0.3712     0.3170   251.7265   # DATASET 3 - Observation 152
HO_152                  1         86         53          1                  0.0     0.1799     0.4699   190.5713   # DATASET 3 - Observation 153
HO_153                  1         81         55          1                  0.0     0.3785     0.4733   184.5576   # DATASET 3 - Observation 154
HO_154                  2         79         57          1                  0.0     0.2435    -0.4943   178.5783   # DATASET 3 - Observation 155
HO_155                  2         79         57          1                  0.0     0.2435    -0.4943   176.3177   # DATASET 3 - Observation 156
HO_156                  2         79         57          1                  0.0     0.2435    -0.4943   176.1003   # DATASET 3 - Observation 157
HO_157                  2         79         57          1                  0.0     0.2435    -0.4943   175.8931   # DATASET 3 - Observation 158
HO_158                  2         59         57          1                  0.0     0.4002     0.2939   199.6227   # DATASET 3 - Observation 159
HO_159                  2         59         57          1                  0.0     0.4002     0.2939   185.4863   # DATASET 3 - Observation 160
HO_160                  2         59         57          1                  0.0     0.4002     0.2939   194.6221   # DATASET 3 - Observation 161
HO_161                  3         57         68          1                  0.0     0.1286    -0.1384   286.2170   # DATASET 3 - Observation 162
HO_162                  2         56         48          1                  0.0    -0.3711    -0.3145   212.7848   # DATASET 3 - Observation 163
HO_163                  1         54         53          1                  0.0     0.2213    -0.0539   218.6688   # DATASET 3 - Observation 164
HO_164                  2         54         54          1                  0.0    -0.2131    -0.1700   206.2100   # DATASET 3 - Observation 165
HO_165                  2         52         58          1                  0.0     0.3571    -0.0401   230.2099   # DATASET 3 - Observation 166
HO_166                  1         52         48          1                  0.0     0.1993    -0.4812   225.6570   # DATASET 3 - Observation 167
HO_167                  3         49         63          1                  0.0     0.2089     0.2744   268.6263   # DATASET 3 - Observation 168
HO_168                  1         45         87          1                  0.0     0.1012    -0.1440   275.2775   # DATASET 3 - Observation 169
HO_169                  1         29         81          1                  0.0    -0.3957    -0.4324   291.1362   # DATASET 3 - Observation 170
HO_170                  1         29         81          1                  0.0    -0.4046    -0.3036   290.7978   # DATASET 3 - Observation 171
