
(py37) C:\work\projects\russian_river\model\RR_GSFLOW\MODFLOW\modflow_calibration\ss_calibration\slave_dir>