# GHB package for MODFLOW-NWT generated by Flopy 3.3.6
       379        55
       379         0 # stress period 1
         2       300       171       770.18585         40000.0
         3       300       171       770.18585         40000.0
         2       301       171        198.1389         40000.0
         3       301       171        198.1389         40000.0
         2       302       172        198.1389         40000.0
         3       302       172        198.1389         40000.0
         2       303       171        198.1389         40000.0
         3       303       171        198.1389         40000.0
         3       304       170        198.1389         40000.0
         3       305       170       189.48038         40000.0
         3       306       169       189.48038         40000.0
         3       307       169       143.52654         40000.0
         3       308       168       143.52654         40000.0
         3       309       168       116.55779         40000.0
         3       310       167       116.55779         40000.0
         3       310       166       10.824659         40000.0
         3       311       165       10.824659         40000.0
         3       312       161       46.502117         40000.0
         3       312       162        85.72911         40000.0
         3       312       163        85.72911         40000.0
         3       312       164       10.824659         40000.0
         3       313       160       46.502117         40000.0
         3       314       160        85.72911         40000.0
         3       315       160        85.72911         40000.0
         3       316       160        85.72911         40000.0
         3       317       160        85.72911         40000.0
         3       318       160        85.72911         40000.0
         3       319       160         6.51617         40000.0
         1       320       159         6.51617         40000.0
         2       320       159         6.51617         40000.0
         3       320       159         6.51617         40000.0
         1       321       159        85.72911         40000.0
         2       321       159        85.72911         40000.0
         3       321       159        85.72911         40000.0
         3       322       159        85.72911         40000.0
         3       323       159        85.72911         40000.0
         3       324       159        5.996034         40000.0
         1       325       158        12.15808         40000.0
         2       325       158        5.996034         40000.0
         3       325       158        5.996034         40000.0
         3       326       159        5.996034         40000.0
         3       327       158        5.996034         40000.0
         1       328       157        11.76453         40000.0
         2       328       157        5.996034         40000.0
         3       328       157        5.996034         40000.0
         1       329       157        85.72911         40000.0
         2       329       157        85.72911         40000.0
         3       329       157        85.72911         40000.0
         1       330       157        17.89388         40000.0
         2       330       157       13.760894         40000.0
         3       330       157       13.760894         40000.0
         2       331       156       13.760894         40000.0
         3       331       156       13.760894         40000.0
         2       332       156      107.055885         40000.0
         3       332       156      107.055885         40000.0
         2       333       152       119.07553         40000.0
         3       333       152       119.07553         40000.0
         2       333       153       198.26752         40000.0
         3       333       153       198.26752         40000.0
         2       333       154       198.26752         40000.0
         3       333       154       198.26752         40000.0
         2       333       155      107.055885         40000.0
         3       333       155      107.055885         40000.0
         2       334       150           47.83         40000.0
         3       334       150       28.904112         40000.0
         2       334       151       119.07553         40000.0
         3       334       151       119.07553         40000.0
         1       335       149       28.904112         40000.0
         2       335       149       28.904112         40000.0
         3       335       149       28.904112         40000.0
         1       336       148       28.904112         40000.0
         2       336       148       28.904112         40000.0
         3       336       148       28.904112         40000.0
         1       337       146      0.49238712         40000.0
         2       337       146      0.49238712         40000.0
         3       337       146      0.49238712         40000.0
         1       337       147       28.904112         40000.0
         2       337       147       28.904112         40000.0
         3       337       147       28.904112         40000.0
         2       338       145      0.49238712         40000.0
         3       338       145      0.49238712         40000.0
         2       339       145       198.26752         40000.0
         3       339       145       198.26752         40000.0
         2       340       145         27.6501         40000.0
         3       340       145         27.6501         40000.0
         2       341       146         27.6501         40000.0
         3       341       146         27.6501         40000.0
         3       341       147       198.26752         40000.0
         2       341       148       198.26752         40000.0
         3       341       148       198.26752         40000.0
         2       341       149       198.26752         40000.0
         3       341       149       198.26752         40000.0
         2       341       150           71.18         40000.0
         3       341       150       43.316048         40000.0
         2       342       151       43.316048         40000.0
         3       342       151       43.316048         40000.0
         2       343       151       34.183567         40000.0
         3       343       151       34.183567         40000.0
         2       344       152       34.183567         40000.0
         3       344       152       34.183567         40000.0
         2       345       152       198.26752         40000.0
         3       345       152       198.26752         40000.0
         2       346       152        30.02628         40000.0
         3       346       152        30.02628         40000.0
         2       347       153        30.02628         40000.0
         3       347       153        30.02628         40000.0
         2       348       154        30.02628         40000.0
         3       348       154        30.02628         40000.0
         2       349       154       198.26752         40000.0
         3       349       154       198.26752         40000.0
         2       350       154       198.26752         40000.0
         3       350       154       198.26752         40000.0
         2       351       154       198.26752         40000.0
         3       351       154       198.26752         40000.0
         2       352       154       198.26752         40000.0
         3       352       154       198.26752         40000.0
         2       353       154       198.26752         40000.0
         3       353       154       198.26752         40000.0
         2       354       154       7.5821404         40000.0
         3       354       154       7.5821404         40000.0
         3       355       155           19.73         40000.0
         3       356       155        55.58956         40000.0
         2       357       155        55.58956         40000.0
         3       357       155        55.58956         40000.0
         2       358       155        55.58956         40000.0
         3       358       155        55.58956         40000.0
         2       359       155        55.58956         40000.0
         3       359       155        55.58956         40000.0
         2       360       155       7.6729584         40000.0
         3       360       155       7.6729584         40000.0
         2       361       156       7.6729584         40000.0
         3       361       156       7.6729584         40000.0
         2       361       157       31.646639         40000.0
         3       361       157       31.646639         40000.0
         2       362       158       31.646639         40000.0
         3       362       158       31.646639         40000.0
         2       363       159       31.646639         40000.0
         3       363       159       31.646639         40000.0
         2       364       160       31.646639         40000.0
         3       364       160       31.646639         40000.0
         2       365       160        55.58956         40000.0
         3       365       160        55.58956         40000.0
         3       366       160        55.58956         40000.0
         2       367       160        55.58956         40000.0
         3       367       160        55.58956         40000.0
         2       368       160        55.58956         40000.0
         3       368       160        55.58956         40000.0
         2       369       160        55.58956         40000.0
         3       369       160        55.58956         40000.0
         2       370       160        55.58956         40000.0
         3       370       160        55.58956         40000.0
         2       371       160        55.58956         40000.0
         3       371       160        55.58956         40000.0
         2       372       160        8.159576         40000.0
         3       372       160        8.159576         40000.0
         3       373       161           19.68         40000.0
         3       374       161        55.58956         40000.0
         2       375       161        55.58956         40000.0
         3       375       161        55.58956         40000.0
         2       376       161        55.58956         40000.0
         3       376       161        55.58956         40000.0
         2       377       161        55.58956         40000.0
         3       377       161        55.58956         40000.0
         2       378       161        55.58956         40000.0
         3       378       161        55.58956         40000.0
         2       379       162        55.58956         40000.0
         3       379       162        55.58956         40000.0
         2       380       163        55.58956         40000.0
         3       380       163        55.58956         40000.0
         3       381       163           58.88         40000.0
         3       382       163        55.58956         40000.0
         2       383       163        55.58956         40000.0
         3       383       163        55.58956         40000.0
         2       384       163        76.39881         40000.0
         3       384       163        76.39881         40000.0
         2       376       143        84.46001         40000.0
         3       376       143        81.95446         40000.0
         2       377       144        91.22001         40000.0
         3       377       144        81.95446         40000.0
         2       378       144        123.4433         40000.0
         3       378       144        123.4433         40000.0
         2       379       144        123.4433         40000.0
         3       379       144        123.4433         40000.0
         2       380       144        123.4433         40000.0
         3       380       144        123.4433         40000.0
         2       381       144        123.4433         40000.0
         3       381       144        123.4433         40000.0
         2       382       144        123.4433         40000.0
         3       382       144        123.4433         40000.0
         2       383       144        82.44878         40000.0
         3       383       144        82.44878         40000.0
         2       384       145           86.77         40000.0
         3       384       145        82.44878         40000.0
         2       384       146        82.34205         40000.0
         3       384       146        82.34205         40000.0
         2       385       147        82.34205         40000.0
         3       385       147        82.34205         40000.0
         2       385       148        123.4433         40000.0
         3       385       148        123.4433         40000.0
         2       385       149       91.833916         40000.0
         3       385       149       91.833916         40000.0
         2       385       161        70.54834         40000.0
         3       385       161        70.54834         40000.0
         2       385       162        76.39881         40000.0
         3       385       162        76.39881         40000.0
         2       386       150          141.81         40000.0
         3       386       150       91.833916         40000.0
         2       386       160          107.55         40000.0
         3       386       160        70.54834         40000.0
         2       387       151          169.35         40000.0
         3       387       151          119.35         40000.0
         2       387       159          118.33         40000.0
         3       387       159        70.54834         40000.0
         2       388       152          152.06         40000.0
         3       388       152          102.06         40000.0
         2       388       159          155.73         40000.0
         3       388       159        123.4433         40000.0
         2       389       152          176.43         40000.0
         3       389       152          126.43         40000.0
         3       389       159          129.37         40000.0
         2       390       152          203.28         40000.0
         3       390       152          153.28         40000.0
         2       390       158          156.54         40000.0
         3       390       158          106.54         40000.0
         2       391       153          231.04         40000.0
         3       391       153          181.04         40000.0
         2       391       158          179.57         40000.0
         3       391       158          129.57         40000.0
         2       392       154          223.88         40000.0
         3       392       154          173.88         40000.0
         2       392       155          204.78         40000.0
         3       392       155          154.78         40000.0
         2       392       156          224.97         40000.0
         3       392       156          174.97         40000.0
         2       392       157          162.85         40000.0
         3       392       157          112.85         40000.0
         2       362       118          336.91         40000.0
         3       362       118          286.91         40000.0
         2       363       115          330.84         40000.0
         3       363       115          280.84         40000.0
         2       363       116          322.23         40000.0
         3       363       116          272.23         40000.0
         2       363       117          342.88         40000.0
         3       363       117          292.88         40000.0
         2       363       119          349.54         40000.0
         3       363       119          299.54         40000.0
         2       364        89          211.25         40000.0
         3       364        89          161.25         40000.0
         2       364        90          234.36         40000.0
         3       364        90          184.36         40000.0
         2       364        91          230.47         40000.0
         3       364        91          180.47         40000.0
         2       364       114          243.16         40000.0
         3       364       114          193.16         40000.0
         2       364       120          331.89         40000.0
         3       364       120          281.89         40000.0
         2       364       121          319.31         40000.0
         3       364       121          269.31         40000.0
         2       365        92          218.83         40000.0
         3       365        92          168.83         40000.0
         2       365       114          250.37         40000.0
         3       365       114          200.37         40000.0
         2       365       122          261.81         40000.0
         3       365       122          211.81         40000.0
         2       366        92           253.3         40000.0
         3       366        92           203.3         40000.0
         2       366       114          260.53         40000.0
         3       366       114          210.53         40000.0
         2       366       122          295.86         40000.0
         3       366       122          245.86         40000.0
         2       367        93           251.7         40000.0
         3       367        93           201.7         40000.0
         2       367        94          265.88         40000.0
         3       367        94          215.88         40000.0
         2       367        95          280.04         40000.0
         3       367        95          230.04         40000.0
         2       367        96          233.35         40000.0
         3       367        96          183.35         40000.0
         2       367        98          251.69         40000.0
         3       367        98          201.69         40000.0
         2       367        99          213.55         40000.0
         3       367        99          163.55         40000.0
         2       367       100          147.59         40000.0
         3       367       100       105.85399         40000.0
         2       367       113          277.09         40000.0
         3       367       113          227.09         40000.0
         2       367       123          281.39         40000.0
         3       367       123          231.39         40000.0
         2       367       124          259.99         40000.0
         3       367       124          209.99         40000.0
         2       367       125          260.81         40000.0
         3       367       125          210.81         40000.0
         3       368        97          260.83         40000.0
         2       368       101          209.01         40000.0
         3       368       101          159.01         40000.0
         2       368       112          217.11         40000.0
         3       368       112          167.11         40000.0
         2       368       126          250.22         40000.0
         3       368       126          200.22         40000.0
         2       368       127          216.54         40000.0
         3       368       127          166.54         40000.0
         2       368       132          197.94         40000.0
         3       368       132          147.94         40000.0
         2       368       133          247.83         40000.0
         3       368       133          197.83         40000.0
         2       369       102          253.07         40000.0
         3       369       102          203.07         40000.0
         2       369       111          224.03         40000.0
         3       369       111          174.03         40000.0
         2       369       128          206.09         40000.0
         3       369       128          156.09         40000.0
         2       369       129          149.91         40000.0
         3       369       129           99.91         40000.0
         2       369       131          214.28         40000.0
         3       369       131          164.28         40000.0
         2       369       134          232.42         40000.0
         3       369       134          182.42         40000.0
         2       369       135          200.88         40000.0
         3       369       135          150.88         40000.0
         2       370       103          284.39         40000.0
         3       370       103          234.39         40000.0
         2       370       104          269.54         40000.0
         3       370       104          219.54         40000.0
         2       370       108           262.1         40000.0
         3       370       108           212.1         40000.0
         2       370       110          204.49         40000.0
         3       370       110          154.49         40000.0
         3       370       130          148.24         40000.0
         2       370       136          226.57         40000.0
         3       370       136          176.57         40000.0
         2       371       105          303.03         40000.0
         3       371       105          253.03         40000.0
         2       371       106          302.59         40000.0
         3       371       106          252.59         40000.0
         2       371       107          303.84         40000.0
         3       371       107          253.84         40000.0
         2       371       109          274.83         40000.0
         3       371       109          224.83         40000.0
         2       371       137        84.25662         40000.0
         3       371       137        84.25662         40000.0
         2       371       138        73.06001         40000.0
         3       371       138        45.90867         40000.0
         2       372       139           87.69         40000.0
         3       372       139        45.90867         40000.0
         2       373       139           93.08         40000.0
         3       373       139       43.989136         40000.0
         2       374       140           81.72         40000.0
         3       374       140       43.989136         40000.0
         2       375       141           91.65         40000.0
         3       375       141       43.989136         40000.0
         2       376       142          111.97         40000.0
         3       376       142        61.97001         40000.0
         1       356        79        21.09121         40000.0
         2       356        79        21.09121         40000.0
         3       356        79        21.09121         40000.0
         1       357        80           43.98         40000.0
         2       357        80           23.98         40000.0
         3       357        80        21.09121         40000.0
         1       358        81           25.88         40000.0
         2       358        81        21.09121         40000.0
         3       358        81        21.09121         40000.0
         1       359        81           43.54         40000.0
         2       359        81        24.94828         40000.0
         3       359        81        24.94828         40000.0
         1       360        82           37.79         40000.0
         2       360        82        24.94828         40000.0
         3       360        82        24.94828         40000.0
         2       361        83           51.84         40000.0
         3       361        83        24.94828         40000.0
         2       361        84           60.37         40000.0
         3       361        84       56.251404         40000.0
         2       362        85           82.13         40000.0
         3       362        85       56.251404         40000.0
         2       363        86          115.63         40000.0
         3       363        86           65.63         40000.0
         2       363        87       157.63448         40000.0
         3       363        87       157.63448         40000.0
         2       363        88          156.66         40000.0
         3       363        88          106.66         40000.0
        -1         0 # stress period 2
        -1         0 # stress period 3
        -1         0 # stress period 4
        -1         0 # stress period 5
        -1         0 # stress period 6
        -1         0 # stress period 7
        -1         0 # stress period 8
        -1         0 # stress period 9
        -1         0 # stress period 10
        -1         0 # stress period 11
        -1         0 # stress period 12
        -1         0 # stress period 13
        -1         0 # stress period 14
        -1         0 # stress period 15
        -1         0 # stress period 16
        -1         0 # stress period 17
        -1         0 # stress period 18
        -1         0 # stress period 19
        -1         0 # stress period 20
        -1         0 # stress period 21
        -1         0 # stress period 22
        -1         0 # stress period 23
        -1         0 # stress period 24
        -1         0 # stress period 25
        -1         0 # stress period 26
        -1         0 # stress period 27
        -1         0 # stress period 28
        -1         0 # stress period 29
        -1         0 # stress period 30
        -1         0 # stress period 31
        -1         0 # stress period 32
        -1         0 # stress period 33
        -1         0 # stress period 34
        -1         0 # stress period 35
        -1         0 # stress period 36
        -1         0 # stress period 37
        -1         0 # stress period 38
        -1         0 # stress period 39
        -1         0 # stress period 40
        -1         0 # stress period 41
        -1         0 # stress period 42
        -1         0 # stress period 43
        -1         0 # stress period 44
        -1         0 # stress period 45
        -1         0 # stress period 46
        -1         0 # stress period 47
        -1         0 # stress period 48
        -1         0 # stress period 49
        -1         0 # stress period 50
        -1         0 # stress period 51
        -1         0 # stress period 52
        -1         0 # stress period 53
        -1         0 # stress period 54
        -1         0 # stress period 55
        -1         0 # stress period 56
        -1         0 # stress period 57
        -1         0 # stress period 58
        -1         0 # stress period 59
        -1         0 # stress period 60
        -1         0 # stress period 61
        -1         0 # stress period 62
        -1         0 # stress period 63
        -1         0 # stress period 64
        -1         0 # stress period 65
        -1         0 # stress period 66
        -1         0 # stress period 67
        -1         0 # stress period 68
        -1         0 # stress period 69
        -1         0 # stress period 70
        -1         0 # stress period 71
        -1         0 # stress period 72
        -1         0 # stress period 73
        -1         0 # stress period 74
        -1         0 # stress period 75
        -1         0 # stress period 76
        -1         0 # stress period 77
        -1         0 # stress period 78
        -1         0 # stress period 79
        -1         0 # stress period 80
        -1         0 # stress period 81
        -1         0 # stress period 82
        -1         0 # stress period 83
        -1         0 # stress period 84
        -1         0 # stress period 85
        -1         0 # stress period 86
        -1         0 # stress period 87
        -1         0 # stress period 88
        -1         0 # stress period 89
        -1         0 # stress period 90
        -1         0 # stress period 91
        -1         0 # stress period 92
        -1         0 # stress period 93
        -1         0 # stress period 94
        -1         0 # stress period 95
        -1         0 # stress period 96
        -1         0 # stress period 97
        -1         0 # stress period 98
        -1         0 # stress period 99
        -1         0 # stress period 100
        -1         0 # stress period 101
        -1         0 # stress period 102
        -1         0 # stress period 103
        -1         0 # stress period 104
        -1         0 # stress period 105
        -1         0 # stress period 106
        -1         0 # stress period 107
        -1         0 # stress period 108
        -1         0 # stress period 109
        -1         0 # stress period 110
        -1         0 # stress period 111
        -1         0 # stress period 112
        -1         0 # stress period 113
        -1         0 # stress period 114
        -1         0 # stress period 115
        -1         0 # stress period 116
        -1         0 # stress period 117
        -1         0 # stress period 118
        -1         0 # stress period 119
        -1         0 # stress period 120
        -1         0 # stress period 121
        -1         0 # stress period 122
        -1         0 # stress period 123
        -1         0 # stress period 124
        -1         0 # stress period 125
        -1         0 # stress period 126
        -1         0 # stress period 127
        -1         0 # stress period 128
        -1         0 # stress period 129
        -1         0 # stress period 130
        -1         0 # stress period 131
        -1         0 # stress period 132
        -1         0 # stress period 133
        -1         0 # stress period 134
        -1         0 # stress period 135
        -1         0 # stress period 136
        -1         0 # stress period 137
        -1         0 # stress period 138
        -1         0 # stress period 139
        -1         0 # stress period 140
        -1         0 # stress period 141
        -1         0 # stress period 142
        -1         0 # stress period 143
        -1         0 # stress period 144
        -1         0 # stress period 145
        -1         0 # stress period 146
        -1         0 # stress period 147
        -1         0 # stress period 148
        -1         0 # stress period 149
        -1         0 # stress period 150