# NWT package for MODFLOW-NWT generated by Flopy 3.3.5
 0.35 2.000e+05       100 1.000e-08         2         1         1 SPECIFIED      0.92     1e-05         0       0.1         1        50         1.4       0.8
         1         0         7         7         0         0         1     0.01   0.0015        20
