# DIS package for MODFLOW-NWT generated by Flopy 3.3.6
         8       168       157       984         4         2
  0  0  0  0  0  0  0  0
INTERNAL               1     (FREE) -1 #delr                          
   6.600000E+02   6.600000E+02   6.600000E+02   6.600000E+02   6.600000E+02   6.600000E+02   6.600000E+02   6.600000E+02   6.600000E+02   6.600000E+02   6.600000E+02   6.600000E+02   6.600000E+02   6.600000E+02   6.600000E+02   6.600000E+02   6.600000E+02   6.600000E+02   6.600000E+02   6.600000E+02   6.600000E+02   6.600000E+02   6.600000E+02   6.600000E+02   6.600000E+02   6.600000E+02   6.600000E+02   6.600000E+02   6.600000E+02   6.600000E+02   6.600000E+02   6.600000E+02   6.600000E+02   6.600000E+02   6.600000E+02   6.600000E+02   6.600000E+02   6.600000E+02   6.600000E+02   6.600000E+02   6.600000E+02   6.600000E+02   6.600000E+02   6.600000E+02   6.600000E+02   6.600000E+02   6.600000E+02   6.600000E+02   6.600000E+02   6.600000E+02   6.600000E+02   6.600000E+02   6.600000E+02   6.600000E+02   6.600000E+02   6.600000E+02   6.600000E+02   6.600000E+02   6.600000E+02   6.600000E+02   6.600000E+02   6.600000E+02   6.600000E+02   6.600000E+02   6.600000E+02   6.600000E+02   6.600000E+02   6.600000E+02   6.600000E+02   6.600000E+02   6.600000E+02   6.600000E+02   6.600000E+02   6.600000E+02   6.600000E+02   6.600000E+02   6.600000E+02   6.600000E+02   6.600000E+02   6.600000E+02   6.600000E+02   6.600000E+02   6.600000E+02   6.600000E+02   6.600000E+02   6.600000E+02   6.600000E+02   6.600000E+02   6.600000E+02   6.600000E+02   6.600000E+02   6.600000E+02   6.600000E+02   6.600000E+02   6.600000E+02   6.600000E+02   6.600000E+02   6.600000E+02   6.600000E+02   6.600000E+02   6.600000E+02   6.600000E+02   6.600000E+02   6.600000E+02   6.600000E+02   6.600000E+02   6.600000E+02   6.600000E+02   6.600000E+02   6.600000E+02   6.600000E+02   6.600000E+02   6.600000E+02   6.600000E+02   6.600000E+02   6.600000E+02   6.600000E+02   6.600000E+02   6.600000E+02   6.600000E+02   6.600000E+02   6.600000E+02   6.600000E+02   6.600000E+02   6.600000E+02   6.600000E+02   6.600000E+02   6.600000E+02   6.600000E+02   6.600000E+02   6.600000E+02   6.600000E+02   6.600000E+02   6.600000E+02   6.600000E+02   6.600000E+02   6.600000E+02   6.600000E+02   6.600000E+02   6.600000E+02   6.600000E+02   6.600000E+02   6.600000E+02   6.600000E+02   6.600000E+02   6.600000E+02   6.600000E+02   6.600000E+02   6.600000E+02   6.600000E+02   6.600000E+02   6.600000E+02   6.600000E+02   6.600000E+02   6.600000E+02   6.600000E+02   6.600000E+02
INTERNAL               1     (FREE) -1 #delc                          
   6.600000E+02   6.600000E+02   6.600000E+02   6.600000E+02   6.600000E+02   6.600000E+02   6.600000E+02   6.600000E+02   6.600000E+02   6.600000E+02   6.600000E+02   6.600000E+02   6.600000E+02   6.600000E+02   6.600000E+02   6.600000E+02   6.600000E+02   6.600000E+02   6.600000E+02   6.600000E+02   6.600000E+02   6.600000E+02   6.600000E+02   6.600000E+02   6.600000E+02   6.600000E+02   6.600000E+02   6.600000E+02   6.600000E+02   6.600000E+02   6.600000E+02   6.600000E+02   6.600000E+02   6.600000E+02   6.600000E+02   6.600000E+02   6.600000E+02   6.600000E+02   6.600000E+02   6.600000E+02   6.600000E+02   6.600000E+02   6.600000E+02   6.600000E+02   6.600000E+02   6.600000E+02   6.600000E+02   6.600000E+02   6.600000E+02   6.600000E+02   6.600000E+02   6.600000E+02   6.600000E+02   6.600000E+02   6.600000E+02   6.600000E+02   6.600000E+02   6.600000E+02   6.600000E+02   6.600000E+02   6.600000E+02   6.600000E+02   6.600000E+02   6.600000E+02   6.600000E+02   6.600000E+02   6.600000E+02   6.600000E+02   6.600000E+02   6.600000E+02   6.600000E+02   6.600000E+02   6.600000E+02   6.600000E+02   6.600000E+02   6.600000E+02   6.600000E+02   6.600000E+02   6.600000E+02   6.600000E+02   6.600000E+02   6.600000E+02   6.600000E+02   6.600000E+02   6.600000E+02   6.600000E+02   6.600000E+02   6.600000E+02   6.600000E+02   6.600000E+02   6.600000E+02   6.600000E+02   6.600000E+02   6.600000E+02   6.600000E+02   6.600000E+02   6.600000E+02   6.600000E+02   6.600000E+02   6.600000E+02   6.600000E+02   6.600000E+02   6.600000E+02   6.600000E+02   6.600000E+02   6.600000E+02   6.600000E+02   6.600000E+02   6.600000E+02   6.600000E+02   6.600000E+02   6.600000E+02   6.600000E+02   6.600000E+02   6.600000E+02   6.600000E+02   6.600000E+02   6.600000E+02   6.600000E+02   6.600000E+02   6.600000E+02   6.600000E+02   6.600000E+02   6.600000E+02   6.600000E+02   6.600000E+02   6.600000E+02   6.600000E+02   6.600000E+02   6.600000E+02   6.600000E+02   6.600000E+02   6.600000E+02   6.600000E+02   6.600000E+02   6.600000E+02   6.600000E+02   6.600000E+02   6.600000E+02   6.600000E+02   6.600000E+02   6.600000E+02   6.600000E+02   6.600000E+02   6.600000E+02   6.600000E+02   6.600000E+02   6.600000E+02   6.600000E+02   6.600000E+02   6.600000E+02   6.600000E+02   6.600000E+02   6.600000E+02   6.600000E+02   6.600000E+02   6.600000E+02   6.600000E+02   6.600000E+02   6.600000E+02   6.600000E+02   6.600000E+02   6.600000E+02   6.600000E+02   6.600000E+02   6.600000E+02   6.600000E+02   6.600000E+02
INTERNAL               1     (FREE) -1 #model_top                     
  -9.999000E+03  -9.999000E+03  -9.999000E+03  -9.999000E+03  -9.999000E+03  -9.999000E+03  -9.999000E+03  -9.999000E+03  -9.999000E+03  -9.999000E+03  -9.999000E+03  -9.999000E+03  -9.999000E+03  -9.999000E+03  -9.999000E+03  -9.999000E+03  -9.999000E+03  -9.999000E+03  -9.999000E+03  -9.999000E+03  -9.999000E+03  -9.999000E+03  -9.999000E+03  -9.999000E+03  -9.999000E+03   3.592310E+02   4.645690E+02   5.453200E+02   6.206710E+02   6.984970E+02   7.358860E+02  -9.999000E+03  -9.999000E+03  -9.999000E+03  -9.999000E+03  -9.999000E+03  -9.999000E+03  -9.999000E+03  -9.999000E+03  -9.999000E+03  -9.999000E+03  -9.999000E+03  -9.999000E+03  -9.999000E+03  -9.999000E+03  -9.999000E+03  -9.999000E+03  -9.999000E+03  -9.999000E+03  -9.999000E+03  -9.999000E+03  -9.999000E+03  -9.999000E+03  -9.999000E+03  -9.999000E+03  -9.999000E+03  -9.999000E+03  -9.999000E+03  -9.999000E+03  -9.999000E+03  -9.999000E+03  -9.999000E+03  -9.999000E+03  -9.999000E+03  -9.999000E+03  -9.999000E+03  -9.999000E+03  -9.999000E+03  -9.999000E+03  -9.999000E+03  -9.999000E+03  -9.999000E+03  -9.999000E+03  -9.999000E+03  -9.999000E+03  -9.999000E+03  -9.999000E+03  -9.999000E+03  -9.999000E+03  -9.999000E+03  -9.999000E+03  -9.999000E+03  -9.999000E+03  -9.999000E+03  -9.999000E+03  -9.999000E+03  -9.999000E+03  -9.999000E+03  -9.999000E+03  -9.999000E+03  -9.999000E+03  -9.999000E+03  -9.999000E+03  -9.999000E+03  -9.999000E+03  -9.999000E+03  -9.999000E+03  -9.999000E+03  -9.999000E+03  -9.999000E+03  -9.999000E+03  -9.999000E+03  -9.999000E+03  -9.999000E+03  -9.999000E+03  -9.999000E+03  -9.999000E+03  -9.999000E+03  -9.999000E+03  -9.999000E+03  -9.999000E+03  -9.999000E+03  -9.999000E+03  -9.999000E+03  -9.999000E+03  -9.999000E+03  -9.999000E+03  -9.999000E+03  -9.999000E+03  -9.999000E+03  -9.999000E+03  -9.999000E+03  -9.999000E+03  -9.999000E+03  -9.999000E+03  -9.999000E+03  -9.999000E+03  -9.999000E+03  -9.999000E+03  -9.999000E+03  -9.999000E+03  -9.999000E+03  -9.999000E+03  -9.999000E+03  -9.999000E+03  -9.999000E+03  -9.999000E+03  -9.999000E+03  -9.999000E+03  -9.999000E+03  -9.999000E+03  -9.999000E+03  -9.999000E+03  -9.999000E+03  -9.999000E+03  -9.999000E+03  -9.999000E+03  -9.999000E+03  -9.999000E+03  -9.999000E+03  -9.999000E+03  -9.999000E+03  -9.999000E+03  -9.999000E+03  -9.999000E+03  -9.999000E+03  -9.999000E+03
  -9.999000E+03  -9.999000E+03  -9.999000E+03  -9.999000E+03  -9.999000E+03  -9.999000E+03  -9.999000E+03  -9.999000E+03  -9.999000E+03  -9.999000E+03  -9.999000E+03  -9.999000E+03  -9.999000E+03  -9.999000E+03  -9.999000E+03  -9.999000E+03  -9.999000E+03  -9.999000E+03  -9.999000E+03  -9.999000E+03  -9.999000E+03  -9.999000E+03  -9.999000E+03  -9.999000E+03   1.998770E+02   2.948990E+02   4.183740E+02   5.080740E+02   5.919240E+02   6.605840E+02   7.000200E+02   6.903610E+02   7.501740E+02   8.638170E+02   9.273410E+02   9.443180E+02  -9.999000E+03  -9.999000E+03  -9.999000E+03  -9.999000E+03  -9.999000E+03  -9.999000E+03  -9.999000E+03  -9.999000E+03  -9.999000E+03  -9.999000E+03  -9.999000E+03  -9.999000E+03  -9.999000E+03  -9.999000E+03  -9.999000E+03  -9.999000E+03  -9.999000E+03  -9.999000E+03  -9.999000E+03  -9.999000E+03  -9.999000E+03  -9.999000E+03  -9.999000E+03  -9.999000E+03  -9.999000E+03  -9.999000E+03  -9.999000E+03  -9.999000E+03  -9.999000E+03  -9.999000E+03  -9.999000E+03  -9.999000E+03  -9.999000E+03  -9.999000E+03  -9.999000E+03  -9.999000E+03  -9.999000E+03  -9.999000E+03  -9.999000E+03  -9.999000E+03  -9.999000E+03  -9.999000E+03  -9.999000E+03  -9.999000E+03  -9.999000E+03  -9.999000E+03  -9.999000E+03  -9.999000E+03  -9.999000E+03  -9.999000E+03  -9.999000E+03  -9.999000E+03  -9.999000E+03  -9.999000E+03  -9.999000E+03  -9.999000E+03  -9.999000E+03  -9.999000E+03  -9.999000E+03  -9.999000E+03  -9.999000E+03  -9.999000E+03  -9.999000E+03  -9.999000E+03  -9.999000E+03  -9.999000E+03  -9.999000E+03  -9.999000E+03  -9.999000E+03  -9.999000E+03  -9.999000E+03  -9.999000E+03  -9.999000E+03  -9.999000E+03  -9.999000E+03  -9.999000E+03  -9.999000E+03  -9.999000E+03  -9.999000E+03  -9.999000E+03  -9.999000E+03  -9.999000E+03  -9.999000E+03  -9.999000E+03  -9.999000E+03  -9.999000E+03  -9.999000E+03  -9.999000E+03  -9.999000E+03  -9.999000E+03  -9.999000E+03  -9.999000E+03  -9.999000E+03  -9.999000E+03  -9.999000E+03  -9.999000E+03  -9.999000E+03  -9.999000E+03  -9.999000E+03  -9.999000E+03  -9.999000E+03  -9.999000E+03  -9.999000E+03  -9.999000E+03  -9.999000E+03  -9.999000E+03  -9.999000E+03  -9.999000E+03  -9.999000E+03  -9.999000E+03  -9.999000E+03  -9.999000E+03  -9.999000E+03  -9.999000E+03  -9.999000E+03  -9.999000E+03  -9.999000E+03  -9.999000E+03  -9.999000E+03  -9.999000E+03  -9.999000E+03
  -9.999000E+03  -9.999000E+03  -9.999000E+03  -9.999000E+03  -9.999000E+03  -9.999000E+03  -9.999000E+03  -9.999000E+03  -9.999000E+03  -9.999000E+03  -9.999000E+03  -9.999000E+03  -9.999000E+03  -9.999000E+03  -9.999000E+03  -9.999000E+03  -9.999000E+03  -9.999000E+03  -9.999000E+03  -9.999000E+03  -9.999000E+03  -9.999000E+03  -9.999000E+03  -9.999000E+03   1.952140E+02   2.721820E+02   3.228370E+02   4.519460E+02   5.427030E+02   6.355260E+02   6.709910E+02   6.070620E+02   6.490940E+02   7.209450E+02   7.597320E+02   8.460290E+02   8.110620E+02  -9.999000E+03  -9.999000E+03  -9.999000E+03  -9.999000E+03  -9.999000E+03  -9.999000E+03  -9.999000E+03  -9.999000E+03  -9.999000E+03  -9.999000E+03  -9.999000E+03  -9.999000E+03  -9.999000E+03  -9.999000E+03  -9.999000E+03  -9.999000E+03  -9.999000E+03  -9.999000E+03  -9.999000E+03  -9.999000E+03  -9.999000E+03  -9.999000E+03  -9.999000E+03  -9.999000E+03  -9.999000E+03  -9.999000E+03  -9.999000E+03  -9.999000E+03  -9.999000E+03  -9.999000E+03  -9.999000E+03  -9.999000E+03  -9.999000E+03  -9.999000E+03  -9.999000E+03  -9.999000E+03  -9.999000E+03  -9.999000E+03  -9.999000E+03  -9.999000E+03  -9.999000E+03  -9.999000E+03  -9.999000E+03  -9.999000E+03  -9.999000E+03  -9.999000E+03  -9.999000E+03  -9.999000E+03  -9.999000E+03  -9.999000E+03  -9.999000E+03  -9.999000E+03  -9.999000E+03  -9.999000E+03  -9.999000E+03  -9.999000E+03  -9.999000E+03  -9.999000E+03  -9.999000E+03  -9.999000E+03  -9.999000E+03  -9.999000E+03  -9.999000E+03  -9.999000E+03  -9.999000E+03  -9.999000E+03  -9.999000E+03  -9.999000E+03  -9.999000E+03  -9.999000E+03  -9.999000E+03  -9.999000E+03  -9.999000E+03  -9.999000E+03  -9.999000E+03  -9.999000E+03  -9.999000E+03  -9.999000E+03  -9.999000E+03  -9.999000E+03  -9.999000E+03  -9.999000E+03  -9.999000E+03  -9.999000E+03  -9.999000E+03  -9.999000E+03  -9.999000E+03  -9.999000E+03  -9.999000E+03  -9.999000E+03  -9.999000E+03  -9.999000E+03  -9.999000E+03  -9.999000E+03  -9.999000E+03  -9.999000E+03  -9.999000E+03  -9.999000E+03  -9.999000E+03  -9.999000E+03  -9.999000E+03  -9.999000E+03  -9.999000E+03  -9.999000E+03  -9.999000E+03  -9.999000E+03  -9.999000E+03  -9.999000E+03  -9.999000E+03  -9.999000E+03  -9.999000E+03  -9.999000E+03  -9.999000E+03  -9.999000E+03  -9.999000E+03  -9.999000E+03  -9.999000E+03  -9.999000E+03  -9.999000E+03  -9.999000E+03
  -9.999000E+03  -9.999000E+03  -9.999000E+03  -9.999000E+03  -9.999000E+03  -9.999000E+03  -9.999000E+03  -9.999000E+03  -9.999000E+03  -9.999000E+03  -9.999000E+03  -9.999000E+03  -9.999000E+03  -9.999000E+03  -9.999000E+03  -9.999000E+03  -9.999000E+03  -9.999000E+03  -9.999000E+03  -9.999000E+03  -9.999000E+03  -9.999000E+03  -9.999000E+03   1.915910E+02   2.510830E+02   2.373970E+02   2.882320E+02   3.921420E+02   4.604220E+02   5.588710E+02   5.856360E+02   5.396490E+02   6.317560E+02   6.490430E+02   6.693900E+02   7.038090E+02   8.039370E+02  -9.999000E+03  -9.999000E+03  -9.999000E+03  -9.999000E+03   6.551740E+02   6.409230E+02  -9.999000E+03  -9.999000E+03  -9.999000E+03  -9.999000E+03  -9.999000E+03  -9.999000E+03  -9.999000E+03  -9.999000E+03  -9.999000E+03  -9.999000E+03  -9.999000E+03  -9.999000E+03  -9.999000E+03  -9.999000E+03  -9.999000E+03  -9.999000E+03  -9.999000E+03  -9.999000E+03  -9.999000E+03  -9.999000E+03  -9.999000E+03  -9.999000E+03  -9.999000E+03  -9.999000E+03  -9.999000E+03  -9.999000E+03  -9.999000E+03  -9.999000E+03  -9.999000E+03  -9.999000E+03  -9.999000E+03  -9.999000E+03  -9.999000E+03  -9.999000E+03  -9.999000E+03  -9.999000E+03  -9.999000E+03  -9.999000E+03  -9.999000E+03  -9.999000E+03  -9.999000E+03  -9.999000E+03  -9.999000E+03  -9.999000E+03  -9.999000E+03  -9.999000E+03  -9.999000E+03  -9.999000E+03  -9.999000E+03  -9.999000E+03  -9.999000E+03  -9.999000E+03  -9.999000E+03  -9.999000E+03  -9.999000E+03  -9.999000E+03  -9.999000E+03  -9.999000E+03  -9.999000E+03  -9.999000E+03  -9.999000E+03  -9.999000E+03  -9.999000E+03  -9.999000E+03  -9.999000E+03  -9.999000E+03  -9.999000E+03  -9.999000E+03  -9.999000E+03  -9.999000E+03  -9.999000E+03  -9.999000E+03  -9.999000E+03  -9.999000E+03  -9.999000E+03  -9.999000E+03  -9.999000E+03  -9.999000E+03  -9.999000E+03  -9.999000E+03  -9.999000E+03  -9.999000E+03  -9.999000E+03  -9.999000E+03  -9.999000E+03  -9.999000E+03  -9.999000E+03  -9.999000E+03  -9.999000E+03  -9.999000E+03  -9.999000E+03  -9.999000E+03  -9.999000E+03  -9.999000E+03  -9.999000E+03  -9.999000E+03  -9.999000E+03  -9.999000E+03  -9.999000E+03  -9.999000E+03  -9.999000E+03  -9.999000E+03  -9.999000E+03  -9.999000E+03  -9.999000E+03  -9.999000E+03  -9.999000E+03  -9.999000E+03  -9.999000E+03  -9.999000E+03  -9.999000E+03  -9.999000E+03  -9.999000E+03  -9.999000E+03
  -9.999000E+03  -9.999000E+03  -9.999000E+03  -9.999000E+03  -9.999000E+03  -9.999000E+03  -9.999000E+03  -9.999000E+03  -9.999000E+03  -9.999000E+03  -9.999000E+03  -9.999000E+03  -9.999000E+03  -9.999000E+03  -9.999000E+03  -9.999000E+03  -9.999000E+03  -9.999000E+03  -9.999000E+03  -9.999000E+03  -9.999000E+03  -9.999000E+03  -9.999000E+03   1.772630E+02   2.032740E+02   1.908870E+02   2.432010E+02   3.145550E+02   3.472280E+02   4.074570E+02   4.608380E+02   4.667050E+02   5.736470E+02   5.763760E+02   5.979650E+02   6.310060E+02   7.414810E+02   7.708690E+02   7.862620E+02   8.127360E+02   7.167320E+02   6.448250E+02   6.023870E+02   5.686990E+02  -9.999000E+03  -9.999000E+03  -9.999000E+03  -9.999000E+03  -9.999000E+03  -9.999000E+03  -9.999000E+03  -9.999000E+03  -9.999000E+03  -9.999000E+03  -9.999000E+03  -9.999000E+03  -9.999000E+03  -9.999000E+03  -9.999000E+03  -9.999000E+03  -9.999000E+03  -9.999000E+03  -9.999000E+03  -9.999000E+03  -9.999000E+03  -9.999000E+03  -9.999000E+03  -9.999000E+03  -9.999000E+03  -9.999000E+03  -9.999000E+03  -9.999000E+03  -9.999000E+03  -9.999000E+03  -9.999000E+03  -9.999000E+03  -9.999000E+03  -9.999000E+03  -9.999000E+03  -9.999000E+03  -9.999000E+03  -9.999000E+03  -9.999000E+03  -9.999000E+03  -9.999000E+03  -9.999000E+03  -9.999000E+03  -9.999000E+03  -9.999000E+03  -9.999000E+03  -9.999000E+03  -9.999000E+03  -9.999000E+03  -9.999000E+03  -9.999000E+03  -9.999000E+03  -9.999000E+03  -9.999000E+03  -9.999000E+03  -9.999000E+03  -9.999000E+03  -9.999000E+03  -9.999000E+03  -9.999000E+03  -9.999000E+03  -9.999000E+03  -9.999000E+03  -9.999000E+03  -9.999000E+03  -9.999000E+03  -9.999000E+03  -9.999000E+03  -9.999000E+03  -9.999000E+03  -9.999000E+03  -9.999000E+03  -9.999000E+03  -9.999000E+03  -9.999000E+03  -9.999000E+03  -9.999000E+03  -9.999000E+03  -9.999000E+03  -9.999000E+03  -9.999000E+03  -9.999000E+03  -9.999000E+03  -9.999000E+03  -9.999000E+03  -9.999000E+03  -9.999000E+03  -9.999000E+03  -9.999000E+03  -9.999000E+03  -9.999000E+03  -9.999000E+03  -9.999000E+03  -9.999000E+03  -9.999000E+03  -9.999000E+03  -9.999000E+03  -9.999000E+03  -9.999000E+03  -9.999000E+03  -9.999000E+03  -9.999000E+03  -9.999000E+03  -9.999000E+03  -9.999000E+03  -9.999000E+03  -9.999000E+03  -9.999000E+03  -9.999000E+03  -9.999000E+03  -9.999000E+03  -9.999000E+03  -9.999000E+03
  -9.999000E+03  -9.999000E+03  -9.999000E+03  -9.999000E+03  -9.999000E+03  -9.999000E+03  -9.999000E+03  -9.999000E+03  -9.999000E+03  -9.999000E+03  -9.999000E+03  -9.999000E+03  -9.999000E+03  -9.999000E+03  -9.999000E+03  -9.999000E+03  -9.999000E+03  -9.999000E+03  -9.999000E+03  -9.999000E+03  -9.999000E+03  -9.999000E+03   1.369280E+02   1.451120E+02   1.590530E+02   1.722350E+02   1.880320E+02   2.154410E+02   2.776420E+02   2.775420E+02   3.542020E+02   4.351370E+02   5.055590E+02   5.145850E+02   5.042050E+02   5.427340E+02   5.919610E+02   6.168290E+02   6.654830E+02   7.441370E+02   6.941820E+02   6.243240E+02   5.493050E+02   5.094420E+02   5.256030E+02   5.508830E+02   5.999030E+02  -9.999000E+03  -9.999000E+03  -9.999000E+03  -9.999000E+03  -9.999000E+03  -9.999000E+03  -9.999000E+03  -9.999000E+03  -9.999000E+03  -9.999000E+03  -9.999000E+03  -9.999000E+03  -9.999000E+03  -9.999000E+03  -9.999000E+03  -9.999000E+03  -9.999000E+03  -9.999000E+03  -9.999000E+03  -9.999000E+03  -9.999000E+03  -9.999000E+03  -9.999000E+03  -9.999000E+03  -9.999000E+03  -9.999000E+03  -9.999000E+03  -9.999000E+03  -9.999000E+03  -9.999000E+03  -9.999000E+03  -9.999000E+03  -9.999000E+03  -9.999000E+03  -9.999000E+03  -9.999000E+03  -9.999000E+03  -9.999000E+03  -9.999000E+03  -9.999000E+03  -9.999000E+03  -9.999000E+03  -9.999000E+03  -9.999000E+03  -9.999000E+03  -9.999000E+03  -9.999000E+03  -9.999000E+03  -9.999000E+03  -9.999000E+03  -9.999000E+03  -9.999000E+03  -9.999000E+03  -9.999000E+03  -9.999000E+03  -9.999000E+03  -9.999000E+03  -9.999000E+03  -9.999000E+03  -9.999000E+03  -9.999000E+03  -9.999000E+03  -9.999000E+03  -9.999000E+03  -9.999000E+03  -9.999000E+03  -9.999000E+03  -9.999000E+03  -9.999000E+03  -9.999000E+03  -9.999000E+03  -9.999000E+03  -9.999000E+03  -9.999000E+03  -9.999000E+03  -9.999000E+03  -9.999000E+03  -9.999000E+03  -9.999000E+03  -9.999000E+03  -9.999000E+03  -9.999000E+03  -9.999000E+03  -9.999000E+03  -9.999000E+03  -9.999000E+03  -9.999000E+03  -9.999000E+03  -9.999000E+03  -9.999000E+03  -9.999000E+03  -9.999000E+03  -9.999000E+03  -9.999000E+03  -9.999000E+03  -9.999000E+03  -9.999000E+03  -9.999000E+03  -9.999000E+03  -9.999000E+03  -9.999000E+03  -9.999000E+03  -9.999000E+03  -9.999000E+03  -9.999000E+03  -9.999000E+03  -9.999000E+03  -9.999000E+03  -9.999000E+03  -9.999000E+03
  -9.999000E+03  -9.999000E+03  -9.999000E+03  -9.999000E+03  -9.999000E+03  -9.999000E+03  -9.999000E+03  -9.999000E+03  -9.999000E+03  -9.999000E+03  -9.999000E+03  -9.999000E+03  -9.999000E+03  -9.999000E+03  -9.999000E+03  -9.999000E+03  -9.999000E+03  -9.999000E+03  -9.999000E+03  -9.999000E+03   1.027360E+02   1.089550E+02   1.154230E+02   1.284850E+02   1.441130E+02   1.544730E+02   1.634930E+02   1.859990E+02   2.249650E+02   2.722910E+02   3.962480E+02   4.248890E+02   4.228320E+02   4.776590E+02   4.448120E+02   4.780470E+02   4.913270E+02   5.124550E+02   5.672270E+02   6.043510E+02   6.173660E+02   6.251410E+02   5.365280E+02   4.824250E+02   5.158580E+02   5.153720E+02   5.913340E+02  -9.999000E+03  -9.999000E+03  -9.999000E+03  -9.999000E+03  -9.999000E+03  -9.999000E+03  -9.999000E+03  -9.999000E+03  -9.999000E+03  -9.999000E+03  -9.999000E+03  -9.999000E+03  -9.999000E+03  -9.999000E+03  -9.999000E+03  -9.999000E+03  -9.999000E+03  -9.999000E+03  -9.999000E+03  -9.999000E+03  -9.999000E+03  -9.999000E+03  -9.999000E+03  -9.999000E+03  -9.999000E+03  -9.999000E+03  -9.999000E+03  -9.999000E+03  -9.999000E+03  -9.999000E+03  -9.999000E+03  -9.999000E+03  -9.999000E+03  -9.999000E+03  -9.999000E+03  -9.999000E+03  -9.999000E+03  -9.999000E+03  -9.999000E+03  -9.999000E+03  -9.999000E+03  -9.999000E+03  -9.999000E+03  -9.999000E+03  -9.999000E+03  -9.999000E+03  -9.999000E+03  -9.999000E+03  -9.999000E+03  -9.999000E+03  -9.999000E+03  -9.999000E+03  -9.999000E+03  -9.999000E+03  -9.999000E+03  -9.999000E+03  -9.999000E+03  -9.999000E+03  -9.999000E+03  -9.999000E+03  -9.999000E+03  -9.999000E+03  -9.999000E+03  -9.999000E+03  -9.999000E+03  -9.999000E+03  -9.999000E+03  -9.999000E+03  -9.999000E+03  -9.999000E+03  -9.999000E+03  -9.999000E+03  -9.999000E+03  -9.999000E+03  -9.999000E+03  -9.999000E+03  -9.999000E+03  -9.999000E+03  -9.999000E+03  -9.999000E+03  -9.999000E+03  -9.999000E+03  -9.999000E+03  -9.999000E+03  -9.999000E+03  -9.999000E+03  -9.999000E+03  -9.999000E+03  -9.999000E+03  -9.999000E+03  -9.999000E+03  -9.999000E+03  -9.999000E+03  -9.999000E+03  -9.999000E+03  -9.999000E+03  -9.999000E+03  -9.999000E+03  -9.999000E+03  -9.999000E+03  -9.999000E+03  -9.999000E+03  -9.999000E+03  -9.999000E+03  -9.999000E+03  -9.999000E+03  -9.999000E+03  -9.999000E+03  -9.999000E+03  -9.999000E+03
  -9.999000E+03  -9.999000E+03  -9.999000E+03  -9.999000E+03  -9.999000E+03  -9.999000E+03  -9.999000E+03  -9.999000E+03  -9.999000E+03  -9.999000E+03  -9.999000E+03  -9.999000E+03  -9.999000E+03  -9.999000E+03  -9.999000E+03  -9.999000E+03  -9.999000E+03  -9.999000E+03  -9.999000E+03  -9.999000E+03   1.013550E+02   1.078150E+02   1.155230E+02   1.262020E+02   1.687250E+02   1.975680E+02   1.778370E+02   1.860990E+02   2.068500E+02   2.677140E+02   3.346960E+02   3.393120E+02   3.368600E+02   4.218870E+02   3.671280E+02   4.107750E+02   4.147400E+02   4.646680E+02   4.574210E+02   4.839900E+02   5.741530E+02   5.883060E+02   5.445290E+02   4.580100E+02   4.918280E+02   4.937640E+02   5.792940E+02  -9.999000E+03  -9.999000E+03  -9.999000E+03  -9.999000E+03  -9.999000E+03  -9.999000E+03  -9.999000E+03  -9.999000E+03  -9.999000E+03  -9.999000E+03  -9.999000E+03  -9.999000E+03  -9.999000E+03  -9.999000E+03  -9.999000E+03  -9.999000E+03  -9.999000E+03  -9.999000E+03  -9.999000E+03  -9.999000E+03  -9.999000E+03  -9.999000E+03  -9.999000E+03  -9.999000E+03  -9.999000E+03  -9.999000E+03  -9.999000E+03  -9.999000E+03  -9.999000E+03  -9.999000E+03  -9.999000E+03  -9.999000E+03  -9.999000E+03  -9.999000E+03  -9.999000E+03  -9.999000E+03  -9.999000E+03  -9.999000E+03  -9.999000E+03  -9.999000E+03  -9.999000E+03  -9.999000E+03  -9.999000E+03  -9.999000E+03  -9.999000E+03  -9.999000E+03  -9.999000E+03  -9.999000E+03  -9.999000E+03  -9.999000E+03  -9.999000E+03  -9.999000E+03  -9.999000E+03  -9.999000E+03  -9.999000E+03  -9.999000E+03  -9.999000E+03  -9.999000E+03  -9.999000E+03  -9.999000E+03  -9.999000E+03  -9.999000E+03  -9.999000E+03  -9.999000E+03  -9.999000E+03  -9.999000E+03  -9.999000E+03  -9.999000E+03  -9.999000E+03  -9.999000E+03  -9.999000E+03  -9.999000E+03  -9.999000E+03  -9.999000E+03  -9.999000E+03  -9.999000E+03  -9.999000E+03  -9.999000E+03  -9.999000E+03  -9.999000E+03  -9.999000E+03  -9.999000E+03  -9.999000E+03  -9.999000E+03  -9.999000E+03  -9.999000E+03  -9.999000E+03  -9.999000E+03  -9.999000E+03  -9.999000E+03  -9.999000E+03  -9.999000E+03  -9.999000E+03  -9.999000E+03  -9.999000E+03  -9.999000E+03  -9.999000E+03  -9.999000E+03  -9.999000E+03  -9.999000E+03  -9.999000E+03  -9.999000E+03  -9.999000E+03  -9.999000E+03  -9.999000E+03  -9.999000E+03  -9.999000E+03  -9.999000E+03  -9.999000E+03  -9.999000E+03
  -9.999000E+03  -9.999000E+03  -9.999000E+03  -9.999000E+03  -9.999000E+03  -9.999000E+03  -9.999000E+03  -9.999000E+03  -9.999000E+03  -9.999000E+03  -9.999000E+03  -9.999000E+03  -9.999000E+03  -9.999000E+03  -9.999000E+03  -9.999000E+03  -9.999000E+03  -9.999000E+03  -9.999000E+03  -9.999000E+03   1.021250E+02   1.080080E+02   1.171910E+02   1.191890E+02   1.292960E+02   1.481500E+02   1.664100E+02   1.930430E+02   2.097390E+02   2.326900E+02   2.958100E+02   2.879210E+02   3.281150E+02   3.910460E+02   3.283820E+02   3.588500E+02   3.530950E+02   3.640730E+02   3.993820E+02   5.050730E+02   5.467120E+02   5.319710E+02   5.212340E+02   4.376040E+02   4.377040E+02   4.831530E+02   5.109280E+02   5.287230E+02  -9.999000E+03  -9.999000E+03  -9.999000E+03  -9.999000E+03  -9.999000E+03  -9.999000E+03  -9.999000E+03  -9.999000E+03  -9.999000E+03  -9.999000E+03  -9.999000E+03  -9.999000E+03  -9.999000E+03  -9.999000E+03  -9.999000E+03  -9.999000E+03  -9.999000E+03  -9.999000E+03  -9.999000E+03  -9.999000E+03  -9.999000E+03  -9.999000E+03  -9.999000E+03  -9.999000E+03  -9.999000E+03  -9.999000E+03  -9.999000E+03  -9.999000E+03  -9.999000E+03  -9.999000E+03  -9.999000E+03  -9.999000E+03  -9.999000E+03  -9.999000E+03  -9.999000E+03  -9.999000E+03  -9.999000E+03  -9.999000E+03  -9.999000E+03  -9.999000E+03  -9.999000E+03  -9.999000E+03  -9.999000E+03  -9.999000E+03  -9.999000E+03  -9.999000E+03  -9.999000E+03  -9.999000E+03  -9.999000E+03  -9.999000E+03  -9.999000E+03  -9.999000E+03  -9.999000E+03  -9.999000E+03  -9.999000E+03  -9.999000E+03  -9.999000E+03  -9.999000E+03  -9.999000E+03  -9.999000E+03  -9.999000E+03  -9.999000E+03  -9.999000E+03  -9.999000E+03  -9.999000E+03  -9.999000E+03  -9.999000E+03  -9.999000E+03  -9.999000E+03  -9.999000E+03  -9.999000E+03  -9.999000E+03  -9.999000E+03  -9.999000E+03  -9.999000E+03  -9.999000E+03  -9.999000E+03  -9.999000E+03  -9.999000E+03  -9.999000E+03  -9.999000E+03  -9.999000E+03  -9.999000E+03  -9.999000E+03  -9.999000E+03  -9.999000E+03  -9.999000E+03  -9.999000E+03  -9.999000E+03  -9.999000E+03  -9.999000E+03  -9.999000E+03  -9.999000E+03  -9.999000E+03  -9.999000E+03  -9.999000E+03  -9.999000E+03  -9.999000E+03  -9.999000E+03  -9.999000E+03  -9.999000E+03  -9.999000E+03  -9.999000E+03  -9.999000E+03  -9.999000E+03  -9.999000E+03  -9.999000E+03  -9.999000E+03  -9.999000E+03
  -9.999000E+03  -9.999000E+03  -9.999000E+03  -9.999000E+03  -9.999000E+03  -9.999000E+03  -9.999000E+03  -9.999000E+03  -9.999000E+03  -9.999000E+03  -9.999000E+03  -9.999000E+03  -9.999000E+03  -9.999000E+03  -9.999000E+03  -9.999000E+03  -9.999000E+03  -9.999000E+03  -9.999000E+03  -9.999000E+03   1.016700E+02   1.074820E+02   1.122250E+02   1.287530E+02   1.423650E+02   1.419180E+02   1.578450E+02   1.902830E+02   2.018730E+02   2.116740E+02   2.460160E+02   2.592660E+02   3.673740E+02   3.268590E+02   2.904800E+02   3.209920E+02   3.639730E+02   4.316620E+02   5.019780E+02   4.932720E+02   4.691600E+02   4.505530E+02   4.258130E+02   4.148930E+02   3.998830E+02   4.720340E+02   4.409110E+02   4.747930E+02  -9.999000E+03  -9.999000E+03  -9.999000E+03  -9.999000E+03  -9.999000E+03  -9.999000E+03  -9.999000E+03  -9.999000E+03  -9.999000E+03  -9.999000E+03  -9.999000E+03  -9.999000E+03  -9.999000E+03  -9.999000E+03  -9.999000E+03  -9.999000E+03  -9.999000E+03  -9.999000E+03  -9.999000E+03  -9.999000E+03  -9.999000E+03  -9.999000E+03  -9.999000E+03  -9.999000E+03  -9.999000E+03  -9.999000E+03  -9.999000E+03  -9.999000E+03  -9.999000E+03  -9.999000E+03  -9.999000E+03  -9.999000E+03  -9.999000E+03  -9.999000E+03  -9.999000E+03  -9.999000E+03  -9.999000E+03  -9.999000E+03  -9.999000E+03  -9.999000E+03  -9.999000E+03  -9.999000E+03  -9.999000E+03  -9.999000E+03  -9.999000E+03  -9.999000E+03  -9.999000E+03  -9.999000E+03  -9.999000E+03  -9.999000E+03  -9.999000E+03  -9.999000E+03  -9.999000E+03  -9.999000E+03  -9.999000E+03  -9.999000E+03  -9.999000E+03  -9.999000E+03  -9.999000E+03  -9.999000E+03  -9.999000E+03  -9.999000E+03  -9.999000E+03  -9.999000E+03  -9.999000E+03  -9.999000E+03  -9.999000E+03  -9.999000E+03  -9.999000E+03  -9.999000E+03  -9.999000E+03  -9.999000E+03  -9.999000E+03  -9.999000E+03  -9.999000E+03  -9.999000E+03  -9.999000E+03  -9.999000E+03  -9.999000E+03  -9.999000E+03  -9.999000E+03  -9.999000E+03  -9.999000E+03  -9.999000E+03  -9.999000E+03  -9.999000E+03  -9.999000E+03  -9.999000E+03  -9.999000E+03  -9.999000E+03  -9.999000E+03  -9.999000E+03  -9.999000E+03  -9.999000E+03  -9.999000E+03  -9.999000E+03  -9.999000E+03  -9.999000E+03  -9.999000E+03  -9.999000E+03  -9.999000E+03  -9.999000E+03  -9.999000E+03  -9.999000E+03  -9.999000E+03  -9.999000E+03  -9.999000E+03  -9.999000E+03  -9.999000E+03