pcf
* control data
             restart          estimation
       412       212        10         0         4
         1         1              single               point
   2.000000E+01  -3.000000E+00   3.000000E-01   1.000000E-02        -7
   1.000000E+01   1.000000E+01   1.000000E-03
   1.000000E-01
        30   1.000000E-02         3         3   1.000000E-02         3
         0         0         0         parsaverun
* singular value decomposition
         1
  10000000    1.000000E-06
1
* parameter groups
upw_ks                 relative              1.0000000000E-02      0.0 switch                2.0000000000E+00      parabolic             1.0000000000E-05      5.0000000000E-01      smaller              
uzf_surfk              relative              1.0000000000E-02      0.0 switch                2.0000000000E+00      parabolic             1.0000000000E-05      5.0000000000E-01      smaller              
uzf_vks                relative              1.0000000000E-02      0.0 switch                2.0000000000E+00      parabolic             1.0000000000E-05      5.0000000000E-01      smaller              
uzf_finf               relative              1.0000000000E-02      0.0 switch                2.0000000000E+00      parabolic             1.0000000000E-05      5.0000000000E-01      smaller              
sfr_ks                 relative              1.0000000000E-02      0.0 switch                2.0000000000E+00      parabolic             1.0000000000E-05      5.0000000000E-01      smaller              
upw_vka                relative              1.0000000000E-02      0.0 switch                2.0000000000E+00      parabolic             1.0000000000E-05      5.0000000000E-01      smaller              
sfr_spil               relative              1.0000000000E-02      0.0 switch                2.0000000000E+00      parabolic             1.0000000000E-05      5.0000000000E-01      smaller              
lak_cd                 relative              1.0000000000E-02      0.0 switch                2.0000000000E+00      parabolic             1.0000000000E-05      5.0000000000E-01      smaller              
well_rubber_dam        relative              1.0000000000E-02      0.0 switch                2.0000000000E+00      parabolic             1.0000000000E-05      5.0000000000E-01      smaller              
uzf_pet                relative              1.0000000000E-02      0.0 switch                2.0000000000E+00      parabolic             1.0000000000E-05      5.0000000000E-01      smaller              
* parameter data
finf_1                none                  factor                4.8303530000E-01      1.0000000000E-02      1.0000000000E+00      uzf_finf              1.0000000000E+00      0.0000000000E+00      1          
finf_10               none                  factor                4.7250465500E-01      1.0000000000E-02      1.0000000000E+00      uzf_finf              1.0000000000E+00      0.0000000000E+00      1          
finf_11               none                  factor                4.7250465200E-01      1.0000000000E-02      1.0000000000E+00      uzf_finf              1.0000000000E+00      0.0000000000E+00      1          
finf_12               none                  factor                4.7250465200E-01      1.0000000000E-02      1.0000000000E+00      uzf_finf              1.0000000000E+00      0.0000000000E+00      1          
finf_13               none                  factor                4.7250462500E-01      1.0000000000E-02      1.0000000000E+00      uzf_finf              1.0000000000E+00      0.0000000000E+00      1          
finf_14               none                  factor                4.8303530200E-01      1.0000000000E-02      1.0000000000E+00      uzf_finf              1.0000000000E+00      0.0000000000E+00      1          
finf_15               none                  factor                4.8303530000E-01      1.0000000000E-02      1.0000000000E+00      uzf_finf              1.0000000000E+00      0.0000000000E+00      1          
finf_16               none                  factor                4.8303530000E-01      1.0000000000E-02      1.0000000000E+00      uzf_finf              1.0000000000E+00      0.0000000000E+00      1          
finf_17               none                  factor                4.8303529600E-01      1.0000000000E-02      1.0000000000E+00      uzf_finf              1.0000000000E+00      0.0000000000E+00      1          
finf_18               none                  factor                4.8303530000E-01      1.0000000000E-02      1.0000000000E+00      uzf_finf              1.0000000000E+00      0.0000000000E+00      1          
finf_19               none                  factor                4.8303530200E-01      1.0000000000E-02      1.0000000000E+00      uzf_finf              1.0000000000E+00      0.0000000000E+00      1          
finf_2                none                  factor                4.8303529900E-01      1.0000000000E-02      1.0000000000E+00      uzf_finf              1.0000000000E+00      0.0000000000E+00      1          
finf_20               none                  factor                5.2846194100E-01      1.0000000000E-02      1.0000000000E+00      uzf_finf              1.0000000000E+00      0.0000000000E+00      1          
finf_21               none                  factor                4.8303530100E-01      1.0000000000E-02      1.0000000000E+00      uzf_finf              1.0000000000E+00      0.0000000000E+00      1          
finf_22               none                  factor                4.8303530400E-01      1.0000000000E-02      1.0000000000E+00      uzf_finf              1.0000000000E+00      0.0000000000E+00      1          
finf_3                none                  factor                4.8303530500E-01      1.0000000000E-02      1.0000000000E+00      uzf_finf              1.0000000000E+00      0.0000000000E+00      1          
finf_4                none                  factor                4.1058000600E-01      1.0000000000E-02      1.0000000000E+00      uzf_finf              1.0000000000E+00      0.0000000000E+00      1          
finf_5                none                  factor                4.1058000600E-01      1.0000000000E-02      1.0000000000E+00      uzf_finf              1.0000000000E+00      0.0000000000E+00      1          
finf_6                none                  factor                4.8303529900E-01      1.0000000000E-02      1.0000000000E+00      uzf_finf              1.0000000000E+00      0.0000000000E+00      1          
finf_7                none                  factor                4.7250465300E-01      1.0000000000E-02      1.0000000000E+00      uzf_finf              1.0000000000E+00      0.0000000000E+00      1          
finf_8                none                  factor                4.7250465000E-01      1.0000000000E-02      1.0000000000E+00      uzf_finf              1.0000000000E+00      0.0000000000E+00      1          
finf_9                none                  factor                4.7250464800E-01      1.0000000000E-02      1.0000000000E+00      uzf_finf              1.0000000000E+00      0.0000000000E+00      1          
ks_1                  log                   factor                8.1281465300E-01      1.0000000000E-05      5.0000000000E+02      upw_ks                1.0000000000E+00      0.0000000000E+00      1          
ks_10                 log                   factor                1.7665358780E+00      1.0000000000E-05      5.0000000000E+02      upw_ks                1.0000000000E+00      0.0000000000E+00      1          
ks_100                log                   factor                1.0000000000E-05      1.0000000000E-05      5.0000000000E+02      upw_ks                1.0000000000E+00      0.0000000000E+00      1          
ks_101                log                   factor                8.4329500000E-04      1.0000000000E-05      5.0000000000E+02      upw_ks                1.0000000000E+00      0.0000000000E+00      1          
ks_102                log                   factor                7.9600000000E-05      1.0000000000E-05      5.0000000000E+02      upw_ks                1.0000000000E+00      0.0000000000E+00      1          
ks_103                log                   factor                4.3762600000E-04      1.0000000000E-05      5.0000000000E+02      upw_ks                1.0000000000E+00      0.0000000000E+00      1          
ks_104                log                   factor                1.0000000000E-05      1.0000000000E-05      5.0000000000E+02      upw_ks                1.0000000000E+00      0.0000000000E+00      1          
ks_105                log                   factor                1.0100000000E-05      1.0000000000E-05      5.0000000000E+02      upw_ks                1.0000000000E+00      0.0000000000E+00      1          
ks_106                log                   factor                1.4513300000E-04      1.0000000000E-05      5.0000000000E+02      upw_ks                1.0000000000E+00      0.0000000000E+00      1          
ks_107                log                   factor                3.1329400000E-04      1.0000000000E-05      5.0000000000E+02      upw_ks                1.0000000000E+00      0.0000000000E+00      1          
ks_108                log                   factor                4.3405766490E+00      1.0000000000E-05      5.0000000000E+02      upw_ks                1.0000000000E+00      0.0000000000E+00      1          
ks_109                log                   factor                6.8872070310E+00      1.0000000000E-05      5.0000000000E+02      upw_ks                1.0000000000E+00      0.0000000000E+00      1          
ks_11                 log                   factor                3.2307365500E-01      1.0000000000E-05      5.0000000000E+02      upw_ks                1.0000000000E+00      0.0000000000E+00      1          
ks_110                log                   factor                3.9318954940E+00      1.0000000000E-05      5.0000000000E+02      upw_ks                1.0000000000E+00      0.0000000000E+00      1          
ks_111                log                   factor                4.8488140110E+00      1.0000000000E-05      5.0000000000E+02      upw_ks                1.0000000000E+00      0.0000000000E+00      1          
ks_112                log                   factor                3.1346395020E+00      1.0000000000E-05      5.0000000000E+02      upw_ks                1.0000000000E+00      0.0000000000E+00      1          
ks_113                log                   factor                1.0639621020E+00      1.0000000000E-05      5.0000000000E+02      upw_ks                1.0000000000E+00      0.0000000000E+00      1          
ks_114                log                   factor                7.7576918600E+00      1.0000000000E-05      5.0000000000E+02      upw_ks                1.0000000000E+00      0.0000000000E+00      1          
ks_115                log                   factor                6.4252519610E+00      1.0000000000E-05      5.0000000000E+02      upw_ks                1.0000000000E+00      0.0000000000E+00      1          
ks_116                log                   factor                3.9887300100E-01      1.0000000000E-05      5.0000000000E+02      upw_ks                1.0000000000E+00      0.0000000000E+00      1          
ks_117                log                   factor                1.3409948350E+01      1.0000000000E-05      5.0000000000E+02      upw_ks                1.0000000000E+00      0.0000000000E+00      1          
ks_118                log                   factor                2.0380780700E+00      1.0000000000E-05      5.0000000000E+02      upw_ks                1.0000000000E+00      0.0000000000E+00      1          
ks_119                log                   factor                1.0455908780E+01      1.0000000000E-05      5.0000000000E+02      upw_ks                1.0000000000E+00      0.0000000000E+00      1          
ks_12                 log                   factor                8.9508028030E+00      1.0000000000E-05      5.0000000000E+02      upw_ks                1.0000000000E+00      0.0000000000E+00      1          
ks_120                log                   factor                1.5999339500E-01      1.0000000000E-05      5.0000000000E+02      upw_ks                1.0000000000E+00      0.0000000000E+00      1          
ks_121                log                   factor                2.1469819550E+00      1.0000000000E-05      5.0000000000E+02      upw_ks                1.0000000000E+00      0.0000000000E+00      1          
ks_122                log                   factor                3.8488460540E+01      1.0000000000E-05      5.0000000000E+02      upw_ks                1.0000000000E+00      0.0000000000E+00      1          
ks_123                log                   factor                1.1217680930E+01      1.0000000000E-05      5.0000000000E+02      upw_ks                1.0000000000E+00      0.0000000000E+00      1          
ks_124                log                   factor                2.0072522160E+00      1.0000000000E-05      5.0000000000E+02      upw_ks                1.0000000000E+00      0.0000000000E+00      1          
ks_125                log                   factor                5.0000000000E+02      1.0000000000E-05      5.0000000000E+02      upw_ks                1.0000000000E+00      0.0000000000E+00      1          
ks_126                log                   factor                5.0000000000E+02      1.0000000000E-05      5.0000000000E+02      upw_ks                1.0000000000E+00      0.0000000000E+00      1          
ks_127                log                   factor                1.9517050980E+00      1.0000000000E-05      5.0000000000E+02      upw_ks                1.0000000000E+00      0.0000000000E+00      1          
ks_128                log                   factor                3.3627891540E+00      1.0000000000E-05      5.0000000000E+02      upw_ks                1.0000000000E+00      0.0000000000E+00      1          
ks_129                log                   factor                5.9929218290E+00      1.0000000000E-05      5.0000000000E+02      upw_ks                1.0000000000E+00      0.0000000000E+00      1          
ks_13                 log                   factor                1.7358056310E+00      1.0000000000E-05      5.0000000000E+02      upw_ks                1.0000000000E+00      0.0000000000E+00      1          
ks_130                log                   factor                1.4311889650E+01      1.0000000000E-05      5.0000000000E+02      upw_ks                1.0000000000E+00      0.0000000000E+00      1          
ks_131                log                   factor                2.0119400000E-04      1.0000000000E-05      5.0000000000E+02      upw_ks                1.0000000000E+00      0.0000000000E+00      1          
ks_132                log                   factor                2.0018000000E-04      1.0000000000E-05      5.0000000000E+02      upw_ks                1.0000000000E+00      0.0000000000E+00      1          
ks_133                log                   factor                2.0199300000E-04      1.0000000000E-05      5.0000000000E+02      upw_ks                1.0000000000E+00      0.0000000000E+00      1          
ks_134                log                   factor                2.6291180000E-02      1.0000000000E-05      5.0000000000E+02      upw_ks                1.0000000000E+00      0.0000000000E+00      1          
ks_135                log                   factor                1.5870700000E-04      1.0000000000E-05      5.0000000000E+02      upw_ks                1.0000000000E+00      0.0000000000E+00      1          
ks_136                log                   factor                2.9104700000E-04      1.0000000000E-05      5.0000000000E+02      upw_ks                1.0000000000E+00      0.0000000000E+00      1          
ks_137                log                   factor                4.1906580000E-03      1.0000000000E-05      5.0000000000E+02      upw_ks                1.0000000000E+00      0.0000000000E+00      1          
ks_138                log                   factor                6.3052964210E+00      1.0000000000E-05      5.0000000000E+02      upw_ks                1.0000000000E+00      0.0000000000E+00      1          
ks_139                log                   factor                2.2886200000E-04      1.0000000000E-05      5.0000000000E+02      upw_ks                1.0000000000E+00      0.0000000000E+00      1          
ks_14                 log                   factor                4.5411601070E+00      1.0000000000E-05      5.0000000000E+02      upw_ks                1.0000000000E+00      0.0000000000E+00      1          
ks_140                log                   factor                1.4530610080E+01      1.0000000000E-05      5.0000000000E+02      upw_ks                1.0000000000E+00      0.0000000000E+00      1          
ks_141                log                   factor                1.9782700000E-04      1.0000000000E-05      5.0000000000E+02      upw_ks                1.0000000000E+00      0.0000000000E+00      1          
ks_142                log                   factor                1.9989200000E-04      1.0000000000E-05      5.0000000000E+02      upw_ks                1.0000000000E+00      0.0000000000E+00      1          
ks_143                log                   factor                1.7434180000E-03      1.0000000000E-05      5.0000000000E+02      upw_ks                1.0000000000E+00      0.0000000000E+00      1          
ks_144                log                   factor                1.0098478790E+00      1.0000000000E-05      5.0000000000E+02      upw_ks                1.0000000000E+00      0.0000000000E+00      1          
ks_145                log                   factor                2.9037479400E+01      1.0000000000E-05      5.0000000000E+02      upw_ks                1.0000000000E+00      0.0000000000E+00      1          
ks_146                log                   factor                5.7339210510E+00      1.0000000000E-05      5.0000000000E+02      upw_ks                1.0000000000E+00      0.0000000000E+00      1          
ks_147                log                   factor                4.0624456410E+00      1.0000000000E-05      5.0000000000E+02      upw_ks                1.0000000000E+00      0.0000000000E+00      1          
ks_148                log                   factor                5.9980759620E+00      1.0000000000E-05      5.0000000000E+02      upw_ks                1.0000000000E+00      0.0000000000E+00      1          
ks_149                log                   factor                2.6408200000E-04      1.0000000000E-05      5.0000000000E+02      upw_ks                1.0000000000E+00      0.0000000000E+00      1          
ks_15                 log                   factor                2.7222614290E+00      1.0000000000E-05      5.0000000000E+02      upw_ks                1.0000000000E+00      0.0000000000E+00      1          
ks_150                log                   factor                7.2223734860E+00      1.0000000000E-05      5.0000000000E+02      upw_ks                1.0000000000E+00      0.0000000000E+00      1          
ks_151                log                   factor                6.0058846470E+00      1.0000000000E-05      5.0000000000E+02      upw_ks                1.0000000000E+00      0.0000000000E+00      1          
ks_152                log                   factor                9.7549967000E-02      1.0000000000E-05      5.0000000000E+02      upw_ks                1.0000000000E+00      0.0000000000E+00      1          
ks_153                log                   factor                3.7121829990E+01      1.0000000000E-05      5.0000000000E+02      upw_ks                1.0000000000E+00      0.0000000000E+00      1          
ks_154                log                   factor                5.6570854190E+01      1.0000000000E-05      5.0000000000E+02      upw_ks                1.0000000000E+00      0.0000000000E+00      1          
ks_155                log                   factor                1.9576200000E-04      1.0000000000E-05      5.0000000000E+02      upw_ks                1.0000000000E+00      0.0000000000E+00      1          
ks_156                log                   factor                1.8501792800E-01      1.0000000000E-05      5.0000000000E+02      upw_ks                1.0000000000E+00      0.0000000000E+00      1          
ks_157                log                   factor                1.9098758700E-01      1.0000000000E-05      5.0000000000E+02      upw_ks                1.0000000000E+00      0.0000000000E+00      1          
ks_158                log                   factor                6.2491738800E-01      1.0000000000E-05      5.0000000000E+02      upw_ks                1.0000000000E+00      0.0000000000E+00      1          
ks_159                log                   factor                2.6778700000E-02      1.0000000000E-05      5.0000000000E+02      upw_ks                1.0000000000E+00      0.0000000000E+00      1          
ks_16                 log                   factor                5.0000000000E+02      1.0000000000E-05      5.0000000000E+02      upw_ks                1.0000000000E+00      0.0000000000E+00      1          
ks_160                log                   factor                1.0304108860E+00      1.0000000000E-05      5.0000000000E+02      upw_ks                1.0000000000E+00      0.0000000000E+00      1          
ks_161                log                   factor                2.8025802610E+02      1.0000000000E-05      5.0000000000E+02      upw_ks                1.0000000000E+00      0.0000000000E+00      1          
ks_162                log                   factor                1.8666388100E-01      1.0000000000E-05      5.0000000000E+02      upw_ks                1.0000000000E+00      0.0000000000E+00      1          
ks_163                log                   factor                6.8794958000E-02      1.0000000000E-05      5.0000000000E+02      upw_ks                1.0000000000E+00      0.0000000000E+00      1          
ks_164                log                   factor                5.4530252000E-02      1.0000000000E-05      5.0000000000E+02      upw_ks                1.0000000000E+00      0.0000000000E+00      1          
ks_165                log                   factor                6.2149119380E+00      1.0000000000E-05      5.0000000000E+02      upw_ks                1.0000000000E+00      0.0000000000E+00      1          
ks_166                log                   factor                1.5650667000E-02      1.0000000000E-05      5.0000000000E+02      upw_ks                1.0000000000E+00      0.0000000000E+00      1          
ks_167                log                   factor                3.7984412000E-02      1.0000000000E-05      5.0000000000E+02      upw_ks                1.0000000000E+00      0.0000000000E+00      1          
ks_168                log                   factor                1.2542651600E-01      1.0000000000E-05      5.0000000000E+02      upw_ks                1.0000000000E+00      0.0000000000E+00      1          
ks_169                log                   factor                2.6341600000E-04      1.0000000000E-05      5.0000000000E+02      upw_ks                1.0000000000E+00      0.0000000000E+00      1          
ks_17                 log                   factor                1.6695759300E+00      1.0000000000E-05      5.0000000000E+02      upw_ks                1.0000000000E+00      0.0000000000E+00      1          
ks_170                log                   factor                2.0338720000E-03      1.0000000000E-05      5.0000000000E+02      upw_ks                1.0000000000E+00      0.0000000000E+00      1          
ks_171                log                   factor                1.0889400240E+00      1.0000000000E-05      5.0000000000E+02      upw_ks                1.0000000000E+00      0.0000000000E+00      1          
ks_172                log                   factor                1.9197837000E-02      1.0000000000E-05      5.0000000000E+02      upw_ks                1.0000000000E+00      0.0000000000E+00      1          
ks_173                log                   factor                8.0006990000E-03      1.0000000000E-05      5.0000000000E+02      upw_ks                1.0000000000E+00      0.0000000000E+00      1          
ks_174                log                   factor                5.8449282650E+00      1.0000000000E-05      5.0000000000E+02      upw_ks                1.0000000000E+00      0.0000000000E+00      1          
ks_175                log                   factor                1.2517499900E-01      1.0000000000E-05      5.0000000000E+02      upw_ks                1.0000000000E+00      0.0000000000E+00      1          
ks_176                log                   factor                4.5434260000E-03      1.0000000000E-05      5.0000000000E+02      upw_ks                1.0000000000E+00      0.0000000000E+00      1          
ks_177                log                   factor                1.1086478230E+00      1.0000000000E-05      5.0000000000E+02      upw_ks                1.0000000000E+00      0.0000000000E+00      1          
ks_178                log                   factor                2.0082000000E-04      1.0000000000E-05      5.0000000000E+02      upw_ks                1.0000000000E+00      0.0000000000E+00      1          
ks_179                log                   factor                2.0706861020E+00      1.0000000000E-05      5.0000000000E+02      upw_ks                1.0000000000E+00      0.0000000000E+00      1          
ks_18                 log                   factor                2.5269129280E+00      1.0000000000E-05      5.0000000000E+02      upw_ks                1.0000000000E+00      0.0000000000E+00      1          
ks_180                log                   factor                1.9100000000E-05      1.0000000000E-05      5.0000000000E+02      upw_ks                1.0000000000E+00      0.0000000000E+00      1          
ks_181                log                   factor                3.1532025300E-01      1.0000000000E-05      5.0000000000E+02      upw_ks                1.0000000000E+00      0.0000000000E+00      1          
ks_182                log                   factor                4.8530063630E+00      1.0000000000E-05      5.0000000000E+02      upw_ks                1.0000000000E+00      0.0000000000E+00      1          
ks_183                log                   factor                9.6277737600E-01      1.0000000000E-05      5.0000000000E+02      upw_ks                1.0000000000E+00      0.0000000000E+00      1          
ks_184                log                   factor                4.0349500000E-04      1.0000000000E-05      5.0000000000E+02      upw_ks                1.0000000000E+00      0.0000000000E+00      1          
ks_185                log                   factor                9.5600000000E-05      1.0000000000E-05      5.0000000000E+02      upw_ks                1.0000000000E+00      0.0000000000E+00      1          
ks_186                log                   factor                9.8300000000E-05      1.0000000000E-05      5.0000000000E+02      upw_ks                1.0000000000E+00      0.0000000000E+00      1          
ks_187                log                   factor                1.0939100000E-04      1.0000000000E-05      5.0000000000E+02      upw_ks                1.0000000000E+00      0.0000000000E+00      1          
ks_188                log                   factor                3.9367600000E-04      1.0000000000E-05      5.0000000000E+02      upw_ks                1.0000000000E+00      0.0000000000E+00      1          
ks_189                log                   factor                1.1232800000E-04      1.0000000000E-05      5.0000000000E+02      upw_ks                1.0000000000E+00      0.0000000000E+00      1          
ks_19                 log                   factor                4.4723697660E+01      1.0000000000E-05      5.0000000000E+02      upw_ks                1.0000000000E+00      0.0000000000E+00      1          
ks_190                log                   factor                1.0000000000E-05      1.0000000000E-05      5.0000000000E+02      upw_ks                1.0000000000E+00      0.0000000000E+00      1          
ks_191                log                   factor                1.0094800000E-04      1.0000000000E-05      5.0000000000E+02      upw_ks                1.0000000000E+00      0.0000000000E+00      1          
ks_192                log                   factor                1.2870700000E-04      1.0000000000E-05      5.0000000000E+02      upw_ks                1.0000000000E+00      0.0000000000E+00      1          
ks_193                log                   factor                1.0000000000E-05      1.0000000000E-05      5.0000000000E+02      upw_ks                1.0000000000E+00      0.0000000000E+00      1          
ks_194                log                   factor                1.0100000000E-05      1.0000000000E-05      5.0000000000E+02      upw_ks                1.0000000000E+00      0.0000000000E+00      1          
ks_195                log                   factor                7.7565100000E-04      1.0000000000E-05      5.0000000000E+02      upw_ks                1.0000000000E+00      0.0000000000E+00      1          
ks_196                log                   factor                1.0000000000E-05      1.0000000000E-05      5.0000000000E+02      upw_ks                1.0000000000E+00      0.0000000000E+00      1          