# GHB package for MODFLOW-NWT generated by Flopy 3.3.5
       379        55
       379         0 # stress period 1
         2       300       171          216.91         40000.0
         3       300       171          216.91         40000.0
         2       301       171        82.64001         40000.0
         3       301       171        82.64001         40000.0
         2       302       172        82.64001         40000.0
         3       302       172        82.64001         40000.0
         2       303       171        82.64001         40000.0
         3       303       171        82.64001         40000.0
         3       304       170        82.64001         40000.0
         3       305       170       79.028694         40000.0
         3       306       169       79.028694         40000.0
         3       307       169        59.86221         40000.0
         3       308       168        59.86221         40000.0
         3       309       168        48.61406         40000.0
         3       310       167        48.61406         40000.0
         3       310       166       40.560383         40000.0
         3       311       165       40.560383         40000.0
         3       312       161       30.855953         40000.0
         3       312       162       38.376507         40000.0
         3       312       163       39.827007         40000.0
         3       312       164       40.560383         40000.0
         3       313       160       30.855953         40000.0
         3       314       160        29.66381         40000.0
         3       315       160       29.755493         40000.0
         3       316       160       30.019175         40000.0
         3       317       160       30.059702         40000.0
         3       318       160        31.80302         40000.0
         3       319       160       24.416319         40000.0
         1       320       159       24.416319         40000.0
         2       320       159       24.416319         40000.0
         3       320       159       24.416319         40000.0
         1       321       159       21.616602         40000.0
         2       321       159       21.616602         40000.0
         3       321       159       21.616602         40000.0
         3       322       159       25.273975         40000.0
         3       323       159       27.399048         40000.0
         3       324       159       22.467352         40000.0
         1       325       158       22.467352         40000.0
         2       325       158       22.467352         40000.0
         3       325       158       22.467352         40000.0
         3       326       159       22.467352         40000.0
         3       327       158       22.467352         40000.0
         1       328       157       22.467352         40000.0
         2       328       157       22.467352         40000.0
         3       328       157       22.467352         40000.0
         1       329       157       21.167154         40000.0
         2       329       157       21.167154         40000.0
         3       329       157       21.167154         40000.0
         1       330       157        22.29519         40000.0
         2       330       157        22.29519         40000.0
         3       330       157        22.29519         40000.0
         2       331       156        22.29519         40000.0
         3       331       156        22.29519         40000.0
         2       332       156       30.731499         40000.0
         3       332       156       30.731499         40000.0
         2       333       152        59.73492         40000.0
         3       333       152        59.73492         40000.0
         2       333       153       42.803215         40000.0
         3       333       153       42.803215         40000.0
         2       333       154            34.3         40000.0
         3       333       154            34.3         40000.0
         2       333       155       30.731499         40000.0
         3       333       155       30.731499         40000.0
         2       334       150       46.830006         40000.0
         3       334       150       46.830006         40000.0
         2       334       151        59.73492         40000.0
         3       334       151        59.73492         40000.0
         1       335       149       46.830006         40000.0
         2       335       149       46.830006         40000.0
         3       335       149       46.830006         40000.0
         1       336       148       46.830006         40000.0
         2       336       148       46.830006         40000.0
         3       336       148       46.830006         40000.0
         1       337       146       0.7977581         40000.0
         2       337       146       0.7977581         40000.0
         3       337       146       0.7977581         40000.0
         1       337       147       46.830006         40000.0
         2       337       147       46.830006         40000.0
         3       337       147       46.830006         40000.0
         2       338       145       0.7977581         40000.0
         3       338       145       0.7977581         40000.0
         2       339       145            6.26         40000.0
         3       339       145            6.26         40000.0
         2       340       145        44.79827         40000.0
         3       340       145        44.79827         40000.0
         2       341       146        44.79827         40000.0
         3       341       146        44.79827         40000.0
         3       341       147        56.64553         40000.0
         2       341       148           59.61         40000.0
         3       341       148           59.61         40000.0
         2       341       149            62.9         40000.0
         3       341       149            62.9         40000.0
         2       341       150           70.18         40000.0
         3       341       150           70.18         40000.0
         2       342       151           70.18         40000.0
         3       342       151           70.18         40000.0
         2       343       151       55.383694         40000.0
         3       343       151       55.383694         40000.0
         2       344       152       55.383694         40000.0
         3       344       152       55.383694         40000.0
         2       345       152       51.959854         40000.0
         3       345       152       51.959854         40000.0
         2       346       152        48.64812         40000.0
         3       346       152        48.64812         40000.0
         2       347       153        48.64812         40000.0
         3       347       153        48.64812         40000.0
         2       348       154        48.64812         40000.0
         3       348       154        48.64812         40000.0
         2       349       154       46.551796         40000.0
         3       349       154       46.551796         40000.0
         2       350       154       45.260456         40000.0
         3       350       154       45.260456         40000.0
         2       351       154       43.906982         40000.0
         3       351       154       43.906982         40000.0
         2       352       154        42.72683         40000.0
         3       352       154        42.72683         40000.0
         2       353       154       41.899612         40000.0
         3       353       154       41.899612         40000.0
         2       354       154        43.81418         40000.0
         3       354       154        43.81418         40000.0
         3       355       155        43.81418         40000.0
         3       356       155       44.689648         40000.0
         2       357       155       39.151806         40000.0
         3       357       155       39.151806         40000.0
         2       358       155        39.26715         40000.0
         3       358       155        39.26715         40000.0
         2       359       155       39.736313         40000.0
         3       359       155       39.736313         40000.0
         2       360       155        44.33898         40000.0
         3       360       155        44.33898         40000.0
         2       361       156        44.33898         40000.0
         3       361       156        44.33898         40000.0
         2       361       157       43.741547         40000.0
         3       361       157       43.741547         40000.0
         2       362       158       43.741547         40000.0
         3       362       158       43.741547         40000.0
         2       363       159       43.741547         40000.0
         3       363       159       43.741547         40000.0
         2       364       160       43.741547         40000.0
         3       364       160       43.741547         40000.0
         2       365       160       43.407967         40000.0
         3       365       160       43.407967         40000.0
         3       366       160       45.492744         40000.0
         2       367       160        44.14012         40000.0
         3       367       160        44.14012         40000.0
         2       368       160       43.950935         40000.0
         3       368       160       43.950935         40000.0
         2       369       160        43.60556         40000.0
         3       369       160        43.60556         40000.0
         2       370       160       43.976997         40000.0
         3       370       160       43.976997         40000.0
         2       371       160        44.35347         40000.0
         3       371       160        44.35347         40000.0
         2       372       160        47.15095         40000.0
         3       372       160        47.15095         40000.0
         3       373       161        47.15095         40000.0
         3       374       161        52.48389         40000.0
         2       375       161        50.70329         40000.0
         3       375       161        50.70329         40000.0
         2       376       161        51.69178         40000.0
         3       376       161        51.69178         40000.0
         2       377       161       53.500126         40000.0
         3       377       161       53.500126         40000.0
         2       378       161         61.9057         40000.0
         3       378       161         61.9057         40000.0
         2       379       162         61.9057         40000.0
         3       379       162         61.9057         40000.0
         2       380       163         61.9057         40000.0
         3       380       163         61.9057         40000.0
         3       381       163        73.40545         40000.0
         3       382       163        75.83076         40000.0
         2       383       163        75.20605         40000.0
         3       383       163        75.20605         40000.0
         2       384       163       76.973816         40000.0
         3       384       163       76.973816         40000.0
         2       376       143       100.85962         40000.0
         3       376       143       100.85962         40000.0
         2       377       144       100.85962         40000.0
         3       377       144       100.85962         40000.0
         2       378       144        92.86228         40000.0
         3       378       144        92.86228         40000.0
         2       379       144       94.968925         40000.0
         3       379       144       94.968925         40000.0
         2       380       144        96.22796         40000.0
         3       380       144        96.22796         40000.0
         2       381       144        99.71445         40000.0
         3       381       144        99.71445         40000.0
         2       382       144       102.68506         40000.0
         3       382       144       102.68506         40000.0
         2       383       144       106.36285         40000.0
         3       383       144       106.36285         40000.0
         2       384       145       106.36285         40000.0
         3       384       145       106.36285         40000.0
         2       384       146       108.70581         40000.0
         3       384       146       108.70581         40000.0
         2       385       147       108.70581         40000.0
         3       385       147       108.70581         40000.0
         2       385       148       109.79108         40000.0
         3       385       148       109.79108         40000.0
         2       385       149          168.35         40000.0
         3       385       149          168.35         40000.0
         2       385       161       117.33001         40000.0
         3       385       161       117.33001         40000.0
         2       385       162       76.973816         40000.0
         3       385       162       76.973816         40000.0
         2       386       150          168.35         40000.0
         3       386       150          168.35         40000.0
         2       386       160       117.33001         40000.0
         3       386       160       117.33001         40000.0
         2       387       151          168.35         40000.0
         3       387       151          168.35         40000.0
         2       387       159       117.33001         40000.0
         3       387       159       117.33001         40000.0
         2       388       152          168.35         40000.0
         3       388       152          168.35         40000.0
         2       388       159          156.73         40000.0
         3       388       159          156.73         40000.0
         2       389       152          177.43         40000.0
         3       389       152          177.43         40000.0
         3       389       159          155.54         40000.0
         2       390       152          230.04         40000.0
         3       390       152          230.04         40000.0
         2       390       158          155.54         40000.0
         3       390       158          155.54         40000.0
         2       391       153          230.04         40000.0
         3       391       153          230.04         40000.0
         2       391       158          178.57         40000.0
         3       391       158          178.57         40000.0
         2       392       154          230.04         40000.0
         3       392       154          230.04         40000.0
         2       392       155          205.78         40000.0
         3       392       155          205.78         40000.0
         2       392       156          225.97         40000.0
         3       392       156          225.97         40000.0
         2       392       157          178.57         40000.0
         3       392       157          178.57         40000.0
         2       362       118          348.54         40000.0
         3       362       118          348.54         40000.0
         2       363       115          329.84         40000.0
         3       363       115          329.84         40000.0
         2       363       116          323.23         40000.0
         3       363       116          323.23         40000.0
         2       363       117          348.54         40000.0
         3       363       117          348.54         40000.0
         2       363       119          348.54         40000.0
         3       363       119          348.54         40000.0
         2       364        89          210.25         40000.0
         3       364        89          210.25         40000.0
         2       364        90       235.35999         40000.0
         3       364        90       235.35999         40000.0
         2       364        91          229.47         40000.0
         3       364        91          229.47         40000.0
         2       364       114          329.84         40000.0
         3       364       114          329.84         40000.0
         2       364       120          348.54         40000.0
         3       364       120          348.54         40000.0
         2       364       121          318.31         40000.0
         3       364       121          318.31         40000.0
         2       365        92          229.47         40000.0
         3       365        92          229.47         40000.0
         2       365       114          251.37         40000.0
         3       365       114          251.37         40000.0
         2       365       122          318.31         40000.0
         3       365       122          318.31         40000.0
         2       366        92           253.5         40000.0
         3       366        92           253.5         40000.0
         2       366       114          302.84         40000.0
         3       366       114          302.84         40000.0
         2       366       122          294.86         40000.0
         3       366       122          294.86         40000.0
         2       367        93           253.5         40000.0
         3       367        93           253.5         40000.0
         2       367        94          266.88         40000.0
         3       367        94          266.88         40000.0
         2       367        95          281.04         40000.0
         3       367        95          281.04         40000.0
         2       367        96          259.83         40000.0
         3       367        96          259.83         40000.0
         2       367        98          259.83         40000.0
         3       367        98          259.83         40000.0
         2       367        99          214.55         40000.0
         3       367        99          214.55         40000.0
         2       367       100          283.39         40000.0
         3       367       100          283.39         40000.0
         2       367       113          302.84         40000.0
         3       367       113          302.84         40000.0
         2       367       123          294.86         40000.0
         3       367       123          294.86         40000.0
         2       367       124          260.99         40000.0
         3       367       124          260.99         40000.0
         2       367       125          259.81         40000.0
         3       367       125          259.81         40000.0
         3       368        97          259.83         40000.0
         2       368       101          283.39         40000.0
         3       368       101          283.39         40000.0
         2       368       112          302.84         40000.0
         3       368       112          302.84         40000.0
         2       368       126          259.81         40000.0
         3       368       126          259.81         40000.0
         2       368       127          215.54         40000.0
         3       368       127          215.54         40000.0
         2       368       132       213.28001         40000.0
         3       368       132       213.28001         40000.0
         2       368       133          246.83         40000.0
         3       368       133          246.83         40000.0
         2       369       102          283.39         40000.0
         3       369       102          283.39         40000.0
         2       369       111          302.84         40000.0
         3       369       111          302.84         40000.0
         2       369       128          215.54         40000.0
         3       369       128          215.54         40000.0
         2       369       129       213.28001         40000.0
         3       369       129       213.28001         40000.0
         2       369       131       213.28001         40000.0
         3       369       131       213.28001         40000.0
         2       369       134          246.83         40000.0
         3       369       134          246.83         40000.0
         2       369       135       225.57002         40000.0
         3       369       135       225.57002         40000.0
         2       370       103          283.39         40000.0
         3       370       103          283.39         40000.0
         2       370       104          302.03         40000.0
         3       370       104          302.03         40000.0
         2       370       108          302.84         40000.0
         3       370       108          302.84         40000.0
         2       370       110          302.84         40000.0
         3       370       110          302.84         40000.0
         3       370       130       213.28001         40000.0
         2       370       136       225.57002         40000.0
         3       370       136       225.57002         40000.0
         2       371       105          302.03         40000.0
         3       371       105          302.03         40000.0
         2       371       106          303.59         40000.0
         3       371       106          303.59         40000.0
         2       371       107          302.84         40000.0
         3       371       107          302.84         40000.0
         2       371       109          302.84         40000.0
         3       371       109          302.84         40000.0
         2       371       137       225.57002         40000.0
         3       371       137       225.57002         40000.0
         2       371       138        122.9057         40000.0
         3       371       138        122.9057         40000.0
         2       372       139        122.9057         40000.0
         3       372       139        122.9057         40000.0
         2       373       139       117.76676         40000.0
         3       373       139       117.76676         40000.0
         2       374       140       117.76676         40000.0
         3       374       140       117.76676         40000.0
         2       375       141       117.76676         40000.0
         3       375       141       117.76676         40000.0
         2       376       142       117.76676         40000.0
         3       376       142       117.76676         40000.0
         1       356        79           42.98         40000.0
         2       356        79           42.98         40000.0
         3       356        79           42.98         40000.0
         1       357        80           42.98         40000.0
         2       357        80           42.98         40000.0
         3       357        80           42.98         40000.0
         1       358        81           42.98         40000.0
         2       358        81           42.98         40000.0
         3       358        81           42.98         40000.0
         1       359        81           50.84         40000.0
         2       359        81           50.84         40000.0
         3       359        81           50.84         40000.0
         1       360        82           50.84         40000.0
         2       360        82           50.84         40000.0
         3       360        82           50.84         40000.0
         2       361        83           50.84         40000.0
         3       361        83           50.84         40000.0
         2       361        84          114.63         40000.0
         3       361        84          114.63         40000.0
         2       362        85          114.63         40000.0
         3       362        85          114.63         40000.0
         2       363        86          114.63         40000.0
         3       363        86          114.63         40000.0
         2       363        87          147.43         40000.0
         3       363        87          147.43         40000.0
         2       363        88          210.25         40000.0
         3       363        88          210.25         40000.0
        -1         0 # stress period 2
        -1         0 # stress period 3
        -1         0 # stress period 4
        -1         0 # stress period 5
        -1         0 # stress period 6
        -1         0 # stress period 7
        -1         0 # stress period 8
        -1         0 # stress period 9
        -1         0 # stress period 10
        -1         0 # stress period 11
        -1         0 # stress period 12
        -1         0 # stress period 13
        -1         0 # stress period 14
        -1         0 # stress period 15
        -1         0 # stress period 16
        -1         0 # stress period 17
        -1         0 # stress period 18
        -1         0 # stress period 19
        -1         0 # stress period 20
        -1         0 # stress period 21
        -1         0 # stress period 22
        -1         0 # stress period 23
        -1         0 # stress period 24
        -1         0 # stress period 25
        -1         0 # stress period 26
        -1         0 # stress period 27
        -1         0 # stress period 28
        -1         0 # stress period 29
        -1         0 # stress period 30
        -1         0 # stress period 31
        -1         0 # stress period 32
        -1         0 # stress period 33
        -1         0 # stress period 34
        -1         0 # stress period 35
        -1         0 # stress period 36
        -1         0 # stress period 37
        -1         0 # stress period 38
        -1         0 # stress period 39
        -1         0 # stress period 40
        -1         0 # stress period 41
        -1         0 # stress period 42
        -1         0 # stress period 43
        -1         0 # stress period 44
        -1         0 # stress period 45
        -1         0 # stress period 46
        -1         0 # stress period 47
        -1         0 # stress period 48
        -1         0 # stress period 49
        -1         0 # stress period 50
        -1         0 # stress period 51
        -1         0 # stress period 52
        -1         0 # stress period 53
        -1         0 # stress period 54
        -1         0 # stress period 55
        -1         0 # stress period 56
        -1         0 # stress period 57
        -1         0 # stress period 58
        -1         0 # stress period 59
        -1         0 # stress period 60
        -1         0 # stress period 61
        -1         0 # stress period 62
        -1         0 # stress period 63
        -1         0 # stress period 64
        -1         0 # stress period 65
        -1         0 # stress period 66
        -1         0 # stress period 67
        -1         0 # stress period 68
        -1         0 # stress period 69
        -1         0 # stress period 70
        -1         0 # stress period 71
        -1         0 # stress period 72
        -1         0 # stress period 73
        -1         0 # stress period 74
        -1         0 # stress period 75
        -1         0 # stress period 76
        -1         0 # stress period 77
        -1         0 # stress period 78
        -1         0 # stress period 79
        -1         0 # stress period 80
        -1         0 # stress period 81
        -1         0 # stress period 82
        -1         0 # stress period 83
        -1         0 # stress period 84
        -1         0 # stress period 85
        -1         0 # stress period 86
        -1         0 # stress period 87
        -1         0 # stress period 88
        -1         0 # stress period 89
        -1         0 # stress period 90
        -1         0 # stress period 91
        -1         0 # stress period 92
        -1         0 # stress period 93
        -1         0 # stress period 94
        -1         0 # stress period 95
        -1         0 # stress period 96
        -1         0 # stress period 97
        -1         0 # stress period 98
        -1         0 # stress period 99
        -1         0 # stress period 100
        -1         0 # stress period 101
        -1         0 # stress period 102
        -1         0 # stress period 103
        -1         0 # stress period 104
        -1         0 # stress period 105
        -1         0 # stress period 106
        -1         0 # stress period 107
        -1         0 # stress period 108
        -1         0 # stress period 109
        -1         0 # stress period 110
        -1         0 # stress period 111
        -1         0 # stress period 112
        -1         0 # stress period 113
        -1         0 # stress period 114
        -1         0 # stress period 115
        -1         0 # stress period 116
        -1         0 # stress period 117
        -1         0 # stress period 118
        -1         0 # stress period 119
        -1         0 # stress period 120
        -1         0 # stress period 121
        -1         0 # stress period 122
        -1         0 # stress period 123
        -1         0 # stress period 124
        -1         0 # stress period 125
        -1         0 # stress period 126
        -1         0 # stress period 127
        -1         0 # stress period 128
        -1         0 # stress period 129
        -1         0 # stress period 130
        -1         0 # stress period 131
        -1         0 # stress period 132
        -1         0 # stress period 133
        -1         0 # stress period 134
        -1         0 # stress period 135
        -1         0 # stress period 136
        -1         0 # stress period 137
        -1         0 # stress period 138
        -1         0 # stress period 139
        -1         0 # stress period 140
        -1         0 # stress period 141
        -1         0 # stress period 142
        -1         0 # stress period 143
        -1         0 # stress period 144
        -1         0 # stress period 145
        -1         0 # stress period 146
        -1         0 # stress period 147
        -1         0 # stress period 148
        -1         0 # stress period 149
        -1         0 # stress period 150