# AWU package for MODFLOW-NWT, generated by pygsflow
OPTIONS
NOPRINT
IRRIGATION_DIVERSION 147 2
IRRIGATION_WELL 328 2
PHIRAMP
ETDEMAND
WELLCBC 55
END
# segment list for irriagation diversions
SEGMENT LIST
5
7
8
13
16
17
19
20
21
25
28
31
34
35
37
39
42
43
50
55
57
61
63
69
72
74
76
80
83
88
90
93
97
100
101
102
104
106
107
109
111
112
114
117
122
125
128
129
134
135
136
138
150
152
153
155
156
157
160
161
167
169
170
172
174
185
187
189
192
196
199
210
228
238
244
252
254
262
263
265
266
270
272
273
278
281
282
284
286
292
293
296
300
308
309
310
316
318
320
321
323
327
330
332
335
336
338
339
341
344
345
348
351
352
355
357
362
366
370
372
373
377
379
380
381
387
389
391
393
397
402
404
406
408
413
422
426
427
433
437
440
441
442
443
444
445
450
END 
# ag well list
WELL LIST 
0   162   67   0.000000
0   162   100   0.000000
0   165   98   0.000000
0   164   99   0.000000
0   164   82   0.000000
0   165   83   0.000000
0   164   85   0.000000
0   164   84   0.000000
0   163   87   0.000000
0   163   88   0.000000
0   155   83   0.000000
0   149   82   0.000000
0   167   93   0.000000
0   164   94   0.000000
0   152   82   0.000000
0   146   81   0.000000
0   138   77   0.000000
0   139   76   0.000000
0   138   77   0.000000
0   137   77   0.000000
0   136   77   0.000000
0   136   77   0.000000
0   134   76   0.000000
0   139   76   0.000000
0   121   67   0.000000
0   118   66   0.000000
0   118   73   0.000000
0   113   65   0.000000
0   114   64   0.000000
0   114   63   0.000000
0   112   63   0.000000
0   113   64   0.000000
0   110   66   0.000000
0   112   63   0.000000
0   109   63   0.000000
0   107   62   0.000000
0   102   71   0.000000
0   106   61   0.000000
0   105   61   0.000000
0   104   60   0.000000
0   104   61   0.000000
0   116   63   0.000000
0   113   63   0.000000
0   103   59   0.000000
0   96   67   0.000000
0   99   61   0.000000
0   97   61   0.000000
0   98   62   0.000000
0   89   59   0.000000
0   87   57   0.000000
0   83   49   0.000000
0   82   49   0.000000
0   50   57   0.000000
0   47   58   0.000000
0   55   46   0.000000
0   56   45   0.000000
0   46   47   0.000000
0   46   47   0.000000
0   43   47   0.000000
0   45   47   0.000000
0   43   49   0.000000
0   43   48   0.000000
0   33   49   0.000000
0   50   38   0.000000
0   47   94   0.000000
0   44   24   0.000000
0   158   70   0.000000
0   349   144   0.000000
0   349   144   0.000000
0   0   0   0.000000
0   337   147   0.000000
0   336   147   0.000000
0   336   148   0.000000
0   336   148   0.000000
0   326   156   0.000000
0   334   146   0.000000
0   334   146   0.000000
0   334   141   0.000000
0   334   141   0.000000
0   332   139   0.000000
0   324   156   0.000000
0   325   156   0.000000
0   321   158   0.000000
0   321   157   0.000000
0   321   158   0.000000
0   321   157   0.000000
0   319   158   0.000000
0   315   156   0.000000
0   314   156   0.000000
0   310   158   0.000000
0   308   157   0.000000
0   307   156   0.000000
0   307   156   0.000000
0   306   156   0.000000
0   306   156   0.000000
0   305   156   0.000000
0   304   156   0.000000
0   303   156   0.000000
0   305   156   0.000000
0   303   156   0.000000
0   300   154   0.000000
0   302   155   0.000000
0   328   149   0.000000
0   328   150   0.000000
0   328   152   0.000000
0   329   153   0.000000
0   327   154   0.000000
0   324   154   0.000000
0   323   154   0.000000
0   321   154   0.000000
0   321   154   0.000000
0   324   154   0.000000
0   324   154   0.000000
0   320   155   0.000000
0   317   155   0.000000
0   314   154   0.000000
0   314   155   0.000000
0   314   155   0.000000
0   313   155   0.000000
0   311   154   0.000000
0   308   150   0.000000
0   308   154   0.000000
0   312   156   0.000000
0   311   156   0.000000
0   303   151   0.000000
0   305   149   0.000000
0   302   151   0.000000
0   300   150   0.000000
0   298   150   0.000000
0   293   147   0.000000
0   291   147   0.000000
0   288   143   0.000000
0   288   144   0.000000
0   288   144   0.000000
0   284   141   0.000000
0   290   148   0.000000
0   289   148   0.000000
0   287   147   0.000000
0   287   144   0.000000
0   285   142   0.000000
0   284   143   0.000000
0   283   141   0.000000
0   282   140   0.000000
0   279   135   0.000000
0   278   136   0.000000
0   275   133   0.000000
0   273   132   0.000000
0   273   132   0.000000
0   273   132   0.000000
0   270   131   0.000000
0   283   140   0.000000
0   299   159   0.000000
0   298   160   0.000000
0   299   158   0.000000
0   298   159   0.000000
0   298   158   0.000000
0   298   158   0.000000
0   279   135   0.000000
0   270   131   0.000000
0   269   131   0.000000
0   267   130   0.000000
0   267   130   0.000000
0   266   128   0.000000
0   264   128   0.000000
0   262   126   0.000000
0   262   127   0.000000
0   259   125   0.000000
0   260   124   0.000000
0   257   119   0.000000
0   259   120   0.000000
0   219   113   0.000000
0   221   113   0.000000
0   222   113   0.000000
0   221   113   0.000000
0   221   113   0.000000
0   221   114   0.000000
0   223   114   0.000000
0   223   115   0.000000
0   223   115   0.000000
0   224   114   0.000000
0   224   115   0.000000
0   224   115   0.000000
0   224   114   0.000000
0   223   113   0.000000
0   223   114   0.000000
0   224   114   0.000000
0   224   114   0.000000
0   227   115   0.000000
0   229   114   0.000000
0   230   115   0.000000
0   235   121   0.000000
0   234   117   0.000000
0   228   113   0.000000
0   227   113   0.000000
0   227   111   0.000000
0   235   119   0.000000
0   228   112   0.000000
0   237   123   0.000000
0   237   123   0.000000
0   243   128   0.000000
0   242   126   0.000000
0   242   127   0.000000
0   246   129   0.000000
0   252   136   0.000000
0   253   138   0.000000
0   255   139   0.000000
0   255   140   0.000000
0   256   140   0.000000
0   256   140   0.000000
0   255   141   0.000000
0   255   142   0.000000
0   256   142   0.000000
0   256   143   0.000000
0   257   142   0.000000
0   257   143   0.000000
0   257   144   0.000000
0   258   144   0.000000
0   258   144   0.000000
0   259   145   0.000000
0   260   146   0.000000
0   260   145   0.000000
0   261   146   0.000000
0   261   147   0.000000
0   261   148   0.000000
0   261   147   0.000000
0   262   147   0.000000
0   262   148   0.000000
0   261   148   0.000000
0   264   149   0.000000
0   263   150   0.000000
0   262   150   0.000000
0   264   151   0.000000
0   264   151   0.000000
0   265   152   0.000000
0   264   153   0.000000
0   265   154   0.000000
0   266   154   0.000000
0   268   155   0.000000
0   269   154   0.000000
0   269   153   0.000000
0   271   153   0.000000
0   270   153   0.000000
0   268   155   0.000000
0   271   154   0.000000
0   271   153   0.000000
0   271   154   0.000000
0   273   155   0.000000
0   273   156   0.000000
0   269   154   0.000000
0   269   155   0.000000
0   270   154   0.000000
0   270   156   0.000000
0   271   157   0.000000
0   272   158   0.000000
0   272   157   0.000000
0   271   159   0.000000
0   275   158   0.000000
0   272   157   0.000000
0   272   157   0.000000
0   272   160   0.000000
0   273   161   0.000000
0   273   161   0.000000
0   275   161   0.000000
0   251   139   0.000000
0   250   136   0.000000
0   250   139   0.000000
0   251   138   0.000000
0   252   140   0.000000
0   253   143   0.000000
0   256   146   0.000000
0   257   146   0.000000
0   258   148   0.000000
0   258   148   0.000000
0   258   149   0.000000
0   259   149   0.000000
0   259   148   0.000000
0   261   152   0.000000
0   261   153   0.000000
0   261   153   0.000000
0   262   153   0.000000
0   263   153   0.000000
0   262   155   0.000000
0   263   154   0.000000
0   264   155   0.000000
0   264   156   0.000000
0   265   157   0.000000
0   266   156   0.000000
0   266   156   0.000000
0   267   159   0.000000
0   267   157   0.000000
0   267   157   0.000000
0   268   158   0.000000
0   267   164   0.000000
0   269   159   0.000000
0   269   159   0.000000
0   271   162   0.000000
0   271   162   0.000000
0   271   163   0.000000
0   272   169   0.000000
0   273   164   0.000000
0   273   164   0.000000
0   275   165   0.000000
0   275   163   0.000000
0   276   169   0.000000
0   274   174   0.000000
0   276   174   0.000000
0   279   170   0.000000
0   279   170   0.000000
0   279   172   0.000000
0   280   173   0.000000
0   280   172   0.000000
0   288   176   0.000000
0   292   180   0.000000
0   280   170   0.000000
0   282   173   0.000000
0   283   172   0.000000
0   284   173   0.000000
0   283   172   0.000000
0   261   165   0.000000
0   263   155   0.000000
0   290   207   0.000000
0   277   196   0.000000
0   276   195   0.000000
0   293   180   0.000000
0   294   179   0.000000
0   287   155   0.000000
0   335   132   0.000000
0   299   122   0.000000
END 
# ag stress period data
STRESS PERIOD 1
IRRDIVERSION 
14939 
5   1   0   0
4632   1.000000   0.034915
5   1   0   0
4125   1.000000   0.266882
5   1   0   0
3871   1.000000   0.013626
5   1   0   0
3872   1.000000   0.110853
5   1   0   0
4125   1.000000   0.430685
5   1   0   0
4890   1.000000   0.426140
5   1   0   0
4378   1.000000   0.080640
5   1   0   0
4377   1.000000   0.102194
5   1   0   0
4378   1.000000   0.270222
5   1   0   0
4891   1.000000   0.271596
5   1   0   0
4378   1.000000   0.018165
5   1   0   0
4379   1.000000   0.304138
5   1   0   0
4632   1.000000   0.272393
5   1   0   0
4631   1.000000   0.014397
5   1   0   0
4378   1.000000   0.009996
5   1   0   0
4378   1.000000   0.099965
5   1   0   0
4884   1.000000   0.090055
5   1   0   0
5137   1.000000   0.341244
5   1   0   0
4882   1.000000   0.797351
5   1   0   0
4379   1.000000   0.068728
5   1   0   0
4629   1.000000   0.562674
5   1   0   0
4637   1.000000   0.086339
5   1   0   0
4638   1.000000   0.391319
5   1   0   0
4890   1.000000   0.203716
5   1   0   0
4637   1.000000   0.009351
5   1   0   0
4889   1.000000   0.677736
5   1   0   0
4630   1.000000   0.033634
5   1   0   0
4631   1.000000   0.144110
5   1   0   0
4883   1.000000   0.173007
5   1   0   0
4884   1.000000   0.697514
5   1   0   0
4127   1.000000   0.057123
5   1   0   0
4638   1.000000   0.001439
5   1   0   0
4379   1.000000   0.038518
5   1   0   0
4380   1.000000   0.038954
5   1   0   0
4636   1.000000   0.029705
5   1   0   0
4889   1.000000   0.094151
5   1   0   0
4888   1.000000   0.419983
5   1   0   0
4636   1.000000   0.003033
5   1   0   0
4635   1.000000   0.012179
5   1   0   0
4891   1.000000   0.157601
5   1   0   0
4637   1.000000   0.006427
5   1   0   0
4126   1.000000   0.075965
5   1   0   0
4883   1.000000   0.559504
5   1   0   0
4630   1.000000   0.130518
5   1   0   0
4886   1.000000   0.382241
5   1   0   0
4381   1.000000   0.314348
5   1   0   0
4382   1.000000   0.285051
5   1   0   0
4128   1.000000   0.078861
5   1   0   0
4129   1.000000   0.030212
5   1   0   0
4380   1.000000   0.109745
5   1   0   0
4633   1.000000   0.227127
5   1   0   0
4381   1.000000   0.114834
5   1   0   0
4380   1.000000   0.034374
5   1   0   0
4634   1.000000   0.338900
5   1   0   0
4633   1.000000   0.070317
5   1   0   0
4887   1.000000   0.169506
5   1   0   0
4634   1.000000   0.052218
5   1   0   0
5136   1.000000   0.299123
5   1   0   0
5390   1.000000   0.008965
5   1   0   0
5391   1.000000   0.272124
5   1   0   0
5392   1.000000   0.259951
5   1   0   0
5393   1.000000   0.088145
5   1   0   0
4882   1.000000   0.051612
5   1   0   0
4634   1.000000   0.122403
5   1   0   0
4635   1.000000   0.368089
5   1   0   0
4127   1.000000   0.339083
5   1   0   0
4126   1.000000   0.004705
5   1   0   0
4887   1.000000   0.079123
5   1   0   0
4385   1.000000   0.052195
5   1   0   0
4386   1.000000   0.154034
5   1   0   0
4638   1.000000   0.299465
5   1   0   0
4639   1.000000   0.514352
5   1   0   0
4380   1.000000   0.127126
5   1   0   0
4379   1.000000   0.173116
5   1   0   0
4632   1.000000   0.092285
5   1   0   0
4633   1.000000   0.121208
5   1   0   0
4380   1.000000   0.065124
5   1   0   0
4379   1.000000   0.056449
5   1   0   0
4128   1.000000   0.026606
5   1   0   0
4381   1.000000   0.027083
5   1   0   0
4127   1.000000   0.119697
5   1   0   0
4380   1.000000   0.117158
5   1   0   0
4381   1.000000   0.263467
5   1   0   0
4380   1.000000   0.340882
5   1   0   0
4128   1.000000   0.283340
5   1   0   0
4127   1.000000   0.171423
5   1   0   0
4883   1.000000   0.050061
5   1   0   0
4637   1.000000   0.089157
5   1   0   0
4635   1.000000   0.199142
5   1   0   0
5394   1.000000   0.083817
5   1   0   0
3871   1.000000   0.002073
5   1   0   0
3872   1.000000   0.301535
5   1   0   0
5391   1.000000   0.325336
5   1   0   0
5390   1.000000   0.003986
5   1   0   0
5392   1.000000   0.352513
5   1   0   0
5393   1.000000   0.094586
5   1   0   0
5135   1.000000   0.103395
5   1   0   0
5140   1.000000   0.099177
5   1   0   0
4378   1.000000   0.022351
5   1   0   0
6153   1.000000   0.118732
5   1   0   0
6154   1.000000   0.395702
5   1   0   0
5900   1.000000   0.043750
5   1   0   0
5393   1.000000   0.092932
5   1   0   0
5139   1.000000   0.151342
5   1   0   0
5392   1.000000   0.147484
5   1   0   0
5392   1.000000   0.039461
5   1   0   0
5139   1.000000   0.044302
5   1   0   0
5901   1.000000   0.332843
5   1   0   0
5901   1.000000   0.091256
5   1   0   0
4124   1.000000   0.236361
5   1   0   0
4125   1.000000   0.070528
5   1   0   0
4377   1.000000   0.055040
5   1   0   0
3875   1.000000   0.037014
5   1   0   0
4128   1.000000   0.011750
5   1   0   0
3874   1.000000   0.001678
5   1   0   0
4127   1.000000   0.001320
5   1   0   0
3874   1.000000   0.212900
5   1   0   0
4127   1.000000   0.016133
5   1   0   0
3872   1.000000   0.063981
5   1   0   0
3873   1.000000   0.264117
5   1   0   0
3619   1.000000   0.082914
5   1   0   0
3872   1.000000   0.001786
5   1   0   0
3873   1.000000   0.030101
5   1   0   0
3620   1.000000   0.003924
5   1   0   0
3619   1.000000   0.000129
5   1   0   0
3619   1.000000   0.030107
5   1   0   0
3872   1.000000   0.189086
5   1   0   0
3871   1.000000   0.039804
5   1   0   0
3872   1.000000   0.064263
5   1   0   0
3619   1.000000   0.004348
5   1   0   0
3872   1.000000   0.000806
5   1   0   0
5138   1.000000   0.234879
5   1   0   0
5137   1.000000   0.004922
5   1   0   0
5391   1.000000   0.202572
5   1   0   0
5390   1.000000   0.005837
5   1   0   0
5140   1.000000   0.004004
5   1   0   0
4633   1.000000   0.379813
5   1   0   0
4634   1.000000   0.162283
5   1   0   0
4886   1.000000   0.014317
5   1   0   0
4887   1.000000   0.006836
5   1   0   0
4630   1.000000   0.063019
5   1   0   0
4631   1.000000   0.075255
5   1   0   0
4377   1.000000   0.000835
5   1   0   0
4378   1.000000   0.178918
5   1   0   0
5142   1.000000   0.492207
5   1   0   0
5394   1.000000   0.075887
5   1   0   0
5141   1.000000   0.414247
5   1   0   0
5395   1.000000   0.070596
5   1   0   0
5393   1.000000   0.043520
5   1   0   0
5394   1.000000   0.014786
5   1   0   0
4630   1.000000   0.083443
5   1   0   0
4631   1.000000   0.417847
5   1   0   0
5140   1.000000   0.043519
5   1   0   0
5393   1.000000   0.109733
5   1   0   0
4885   1.000000   0.104024
5   1   0   0
4636   1.000000   0.618769
5   1   0   0
5137   1.000000   0.018555
5   1   0   0
4884   1.000000   0.003058
5   1   0   0
5141   1.000000   0.253619
5   1   0   0
4890   1.000000   0.023319
5   1   0   0
5142   1.000000   0.300968
5   1   0   0
4889   1.000000   0.108716
5   1   0   0
4888   1.000000   0.082469
5   1   0   0
5143   1.000000   0.052183
5   1   0   0
4885   1.000000   0.611558
5   1   0   0
4884   1.000000   0.039689
5   1   0   0
5139   1.000000   0.598413
5   1   0   0
4631   1.000000   0.004226
5   1   0   0
4886   1.000000   0.283882
5   1   0   0
4633   1.000000   0.011852
5   1   0   0
4885   1.000000   0.024666
5   1   0   0
4632   1.000000   0.003424
5   1   0   0
5138   1.000000   0.652398
5   1   0   0
4886   1.000000   0.075995
5   1   0   0
5135   1.000000   0.374591
7   1   0   0
5395   1.000000   0.237172
7   1   0   0
4891   1.000000   0.021236
7   1   0   0
4890   1.000000   0.082664
7   1   0   0
5394   1.000000   0.234495
7   1   0   0
5903   1.000000   0.188944
7   1   0   0
5144   1.000000   0.482409
7   1   0   0
5650   1.000000   0.409900
7   1   0   0
5646   1.000000   0.131134
7   1   0   0
5143   1.000000   0.430775
7   1   0   0
5144   1.000000   0.061155
7   1   0   0
4891   1.000000   0.001498
7   1   0   0
5143   1.000000   0.038825
7   1   0   0
5902   1.000000   0.326789
7   1   0   0
5145   1.000000   0.026269
7   1   0   0
5398   1.000000   0.237935
7   1   0   0
5145   1.000000   0.073336
7   1   0   0
5900   1.000000   0.826143
7   1   0   0
5397   1.000000   0.713664
7   1   0   0
5396   1.000000   0.534658
7   1   0   0
5143   1.000000   0.130649
7   1   0   0
5144   1.000000   0.200536
7   1   0   0
5899   1.000000   0.332951
7   1   0   0
5647   1.000000   0.425272
7   1   0   0
5648   1.000000   0.000029
7   1   0   0
5901   1.000000   0.161551
7   1   0   0
5900   1.000000   0.011540
7   1   0   0
5901   1.000000   0.024725
7   1   0   0
5902   1.000000   0.056123
7   1   0   0
5648   1.000000   0.244375
7   1   0   0
5649   1.000000   0.370512
7   1   0   0
5397   1.000000   0.216016
7   1   0   0
5396   1.000000   0.203962
7   1   0   0
5398   1.000000   0.119796
7   1   0   0
5648   1.000000   0.414428
7   1   0   0
5396   1.000000   0.060874
7   1   0   0
5395   1.000000   0.110461
7   1   0   0
5649   1.000000   0.091725
7   1   0   0
5649   1.000000   0.079166
7   1   0   0
5394   1.000000   0.114217
7   1   0   0
5646   1.000000   0.051221
7   1   0   0
5393   1.000000   0.030844
7   1   0   0
5647   1.000000   0.402792
7   1   0   0
5900   1.000000   0.007408
7   1   0   0
5901   1.000000   0.042507
7   1   0   0
5650   1.000000   0.057179
7   1   0   0
5397   1.000000   0.020114
7   1   0   0
5651   1.000000   0.321550
7   1   0   0
5903   1.000000   0.006410
7   1   0   0
5648   1.000000   0.044817
7   1   0   0
5650   1.000000   0.240010
7   1   0   0
5649   1.000000   0.337300
7   1   0   0
5902   1.000000   0.249995
8   1   0   0
5895   1.000000   0.015287
8   1   0   0
5896   1.000000   0.096903
8   1   0   0
5643   1.000000   0.123262
8   1   0   0
5643   1.000000   0.187458
8   1   0   0
5896   1.000000   0.107779
8   1   0   0
5896   1.000000   0.013685
8   1   0   0
5642   1.000000   0.117702
8   1   0   0
5897   1.000000   0.166960
8   1   0   0
6153   1.000000   0.062347
8   1   0   0
5391   1.000000   0.031860
8   1   0   0
5644   1.000000   0.210305
8   1   0   0
5645   1.000000   0.072464
8   1   0   0
5392   1.000000   0.018152
8   1   0   0
6152   1.000000   0.219143
8   1   0   0
6406   1.000000   0.193909
8   1   0   0
5644   1.000000   0.202582
8   1   0   0
6659   1.000000   0.176661
8   1   0   0
6406   1.000000   0.429126
8   1   0   0
6658   1.000000   0.135640
8   1   0   0
6152   1.000000   0.079321
8   1   0   0
5899   1.000000   0.000891
8   1   0   0
6152   1.000000   0.011135
8   1   0   0
5900   1.000000   0.000621
8   1   0   0
6405   1.000000   0.316817
8   1   0   0
5643   1.000000   0.028157
8   1   0   0
5646   1.000000   0.051079
8   1   0   0
5645   1.000000   0.071707
8   1   0   0
5641   1.000000   0.087458
8   1   0   0
5895   1.000000   0.295164
8   1   0   0
6405   1.000000   0.105767
8   1   0   0
5646   1.000000   0.177425
8   1   0   0
6658   1.000000   0.212003
8   1   0   0
6658   1.000000   0.027634
8   1   0   0
6657   1.000000   0.278370
8   1   0   0
6404   1.000000   0.106341
8   1   0   0
6405   1.000000   0.005969
8   1   0   0
6657   1.000000   0.085734
8   1   0   0
6404   1.000000   0.017479
8   1   0   0
6403   1.000000   0.313643
8   1   0   0
6656   1.000000   0.170095
8   1   0   0
6404   1.000000   0.099224
8   1   0   0
6657   1.000000   0.048427
8   1   0   0
6655   1.000000   0.002505
8   1   0   0
6402   1.000000   0.008361
8   1   0   0
6656   1.000000   0.076083
8   1   0   0
6403   1.000000   0.300368
8   1   0   0
6150   1.000000   0.077900
8   1   0   0
5896   1.000000   0.080431
8   1   0   0
5639   1.000000   0.052772
8   1   0   0
5897   1.000000   0.177599
8   1   0   0
5387   1.000000   0.030476
8   1   0   0
5386   1.000000   0.002081
8   1   0   0
5644   1.000000   0.175312
8   1   0   0
5898   1.000000   0.145272
8   1   0   0
5897   1.000000   0.379054
8   1   0   0
5898   1.000000   0.246447
8   1   0   0
5899   1.000000   0.337579
8   1   0   0
5898   1.000000   0.039612
8   1   0   0
5645   1.000000   0.015436
8   1   0   0
5898   1.000000   0.017246
8   1   0   0
5899   1.000000   0.057856
8   1   0   0
6149   1.000000   0.042023
8   1   0   0
6147   1.000000   0.001952
8   1   0   0
5641   1.000000   0.321123
8   1   0   0
5894   1.000000   0.770629
8   1   0   0
5640   1.000000   0.019215
8   1   0   0
5895   1.000000   0.183542
8   1   0   0
5642   1.000000   0.078136
8   1   0   0
5893   1.000000   0.006592
8   1   0   0
5642   1.000000   0.017691
8   1   0   0
5895   1.000000   0.295320
8   1   0   0
5893   1.000000   0.156310
8   1   0   0
5640   1.000000   0.049707
8   1   0   0
5640   1.000000   0.551046
8   1   0   0
5896   1.000000   0.376542
8   1   0   0
6149   1.000000   0.011336
8   1   0   0
6148   1.000000   0.057900
8   1   0   0
6907   1.000000   0.120115
8   1   0   0
6908   1.000000   0.143794
8   1   0   0
6908   1.000000   0.625521
8   1   0   0
7161   1.000000   0.008386
8   1   0   0
7162   1.000000   0.118611
8   1   0   0
7161   1.000000   0.006402
8   1   0   0
7161   1.000000   0.000390
8   1   0   0
5392   1.000000   0.063342
8   1   0   0
5645   1.000000   0.328061
8   1   0   0
5646   1.000000   0.019866
8   1   0   0
5645   1.000000   0.147547
8   1   0   0
5645   1.000000   0.045194
8   1   0   0
5646   1.000000   0.127012
8   1   0   0
6144   1.000000   0.437905
8   1   0   0
5393   1.000000   0.003636
8   1   0   0
6908   1.000000   0.020462
8   1   0   0
6909   1.000000   0.317401
8   1   0   0
7162   1.000000   0.000395
8   1   0   0
6654   1.000000   0.156306
8   1   0   0
6653   1.000000   0.365603
8   1   0   0
6906   1.000000   0.003110
8   1   0   0
6655   1.000000   0.511529
8   1   0   0
6908   1.000000   0.000873
8   1   0   0
6654   1.000000   0.494519
8   1   0   0
6655   1.000000   0.157903
8   1   0   0
7158   1.000000   0.068983
8   1   0   0
7159   1.000000   0.424849
8   1   0   0
6907   1.000000   0.473709
8   1   0   0
7161   1.000000   0.005031
8   1   0   0
6149   1.000000   0.104084
8   1   0   0
6653   1.000000   0.000301
8   1   0   0
6908   1.000000   0.018157
8   1   0   0
6906   1.000000   0.253880
8   1   0   0
6397   1.000000   0.003605
8   1   0   0
6653   1.000000   0.050594
8   1   0   0
6143   1.000000   0.248259
8   1   0   0
6153   1.000000   0.160132
8   1   0   0
7163   1.000000   0.081808
8   1   0   0
7163   1.000000   0.262748
8   1   0   0
7162   1.000000   0.262663
8   1   0   0
7163   1.000000   0.079383
8   1   0   0
7415   1.000000   0.081558
8   1   0   0
7162   1.000000   0.084658
8   1   0   0
6911   1.000000   0.000106
8   1   0   0
7161   1.000000   0.017479
8   1   0   0
7162   1.000000   0.304524
8   1   0   0
7164   1.000000   0.136613
8   1   0   0
7417   1.000000   0.141333
8   1   0   0
7415   1.000000   0.263574
8   1   0   0
7163   1.000000   0.351379
8   1   0   0
7416   1.000000   0.325230
8   1   0   0
7414   1.000000   0.016573
8   1   0   0
7163   1.000000   0.093916
8   1   0   0
7164   1.000000   0.237094
8   1   0   0
6910   1.000000   0.436895
8   1   0   0
7160   1.000000   0.008072
8   1   0   0
7161   1.000000   0.240418
8   1   0   0
7414   1.000000   0.013778
8   1   0   0
7160   1.000000   0.110502
8   1   0   0
7161   1.000000   0.107023
8   1   0   0
7414   1.000000   0.170898
8   1   0   0
7161   1.000000   0.140667
8   1   0   0
7159   1.000000   0.008392
8   1   0   0
7160   1.000000   0.230530
8   1   0   0
6911   1.000000   0.143713
8   1   0   0
6657   1.000000   0.004821
8   1   0   0
6911   1.000000   0.283228
8   1   0   0
6910   1.000000   0.186745
8   1   0   0
6658   1.000000   0.020152
8   1   0   0
6909   1.000000   0.037955
8   1   0   0
5891   1.000000   0.045053
8   1   0   0
6401   1.000000   0.036104
8   1   0   0
7160   1.000000   0.008780
8   1   0   0
6655   1.000000   0.042652
8   1   0   0
5642   1.000000   0.189876
8   1   0   0
5390   1.000000   0.184312
8   1   0   0
5389   1.000000   0.040512
8   1   0   0
6400   1.000000   0.007158
8   1   0   0
5389   1.000000   0.047477
8   1   0   0
5389   1.000000   0.079671
8   1   0   0
6149   1.000000   0.000120
8   1   0   0
5643   1.000000   0.519451
8   1   0   0
6402   1.000000   0.089971
8   1   0   0
6148   1.000000   0.153004
8   1   0   0
6401   1.000000   0.135127
8   1   0   0
6405   1.000000   0.117347
8   1   0   0
5895   1.000000   0.024962
8   1   0   0
6400   1.000000   0.005393
8   1   0   0
6401   1.000000   0.116208
8   1   0   0
6148   1.000000   0.514242
8   1   0   0
6402   1.000000   0.055423
8   1   0   0
5894   1.000000   0.041400
8   1   0   0
5137   1.000000   0.087639
8   1   0   0
5136   1.000000   0.008877
8   1   0   0
6150   1.000000   0.352173
8   1   0   0
6151   1.000000   0.119952
8   1   0   0
6150   1.000000   0.428997
8   1   0   0
6402   1.000000   0.086112
8   1   0   0
6149   1.000000   0.241866
8   1   0   0
6403   1.000000   0.148114
8   1   0   0
6149   1.000000   0.436985
8   1   0   0
5390   1.000000   0.196496
8   1   0   0
6148   1.000000   0.028802
8   1   0   0
5135   1.000000   0.051036
8   1   0   0
5388   1.000000   0.050428
8   1   0   0
5388   1.000000   0.112471
8   1   0   0
5388   1.000000   0.050621
8   1   0   0
5136   1.000000   0.033409
8   1   0   0
5137   1.000000   0.190326
8   1   0   0
5389   1.000000   0.014790
8   1   0   0
5393   1.000000   0.019183
8   1   0   0
6147   1.000000   0.309745
8   1   0   0
5390   1.000000   0.484487
8   1   0   0
5894   1.000000   0.042130
8   1   0   0
5645   1.000000   0.055812
8   1   0   0
5898   1.000000   0.171157
8   1   0   0
6152   1.000000   0.433049
8   1   0   0
5898   1.000000   0.088611
8   1   0   0
6404   1.000000   0.224973
8   1   0   0
6405   1.000000   0.123668
8   1   0   0
6402   1.000000   0.391980
8   1   0   0
6151   1.000000   0.764755
8   1   0   0
6655   1.000000   0.140263
8   1   0   0
6400   1.000000   0.004929
8   1   0   0
6147   1.000000   0.114249
8   1   0   0
6654   1.000000   0.130889
8   1   0   0
6402   1.000000   0.122467
8   1   0   0
6401   1.000000   0.518291
8   1   0   0
5899   1.000000   0.003837
8   1   0   0
6909   1.000000   0.040117
8   1   0   0
6153   1.000000   0.421337
8   1   0   0
6657   1.000000   0.007642
8   1   0   0
6908   1.000000   0.003424
8   1   0   0
6656   1.000000   0.070448
8   1   0   0
6910   1.000000   0.066344
8   1   0   0
6655   1.000000   0.008474
8   1   0   0
6909   1.000000   0.108920
8   1   0   0
6655   1.000000   0.006639
8   1   0   0
6656   1.000000   0.161734
8   1   0   0
6657   1.000000   0.066352
8   1   0   0
6656   1.000000   0.244777
8   1   0   0
6909   1.000000   0.065036
8   1   0   0
6910   1.000000   0.031503
8   1   0   0
6656   1.000000   0.006565
8   1   0   0
6657   1.000000   0.147691
13   1   0   0
6916   1.000000   0.264664
13   1   0   0
6917   1.000000   0.225034
13   1   0   0
6915   1.000000   0.368436
13   1   0   0
6916   1.000000   0.259690
13   1   0   0
6663   1.000000   0.177495
13   1   0   0
6662   1.000000   0.254480
13   1   0   0
6663   1.000000   0.183129
13   1   0   0
6664   1.000000   0.169687
13   1   0   0
6911   1.000000   0.109353
13   1   0   0
6912   1.000000   0.106322
13   1   0   0
6664   1.000000   0.189076
13   1   0   0
6916   1.000000   0.312382
13   1   0   0
6918   1.000000   0.012295
13   1   0   0
6917   1.000000   0.373255
13   1   0   0
6914   1.000000   0.216496
13   1   0   0
6915   1.000000   0.011667
13   1   0   0
6915   1.000000   0.107538
13   1   0   0
7171   1.000000   0.171582
13   1   0   0
6911   1.000000   0.105427
13   1   0   0
6663   1.000000   0.470373
13   1   0   0
6408   1.000000   0.055854
13   1   0   0
6914   1.000000   0.111701
13   1   0   0
6410   1.000000   0.011963
13   1   0   0
6662   1.000000   0.030710
13   1   0   0
6409   1.000000   0.024083
13   1   0   0
6411   1.000000   0.187366
13   1   0   0
6410   1.000000   0.297695
13   1   0   0
6410   1.000000   0.066804
13   1   0   0
6663   1.000000   0.014713
13   1   0   0
6662   1.000000   0.013124
13   1   0   0
6912   1.000000   0.121734
13   1   0   0
6661   1.000000   0.430075
13   1   0   0
6409   1.000000   0.420421
13   1   0   0
6409   1.000000   0.190236
13   1   0   0
6410   1.000000   0.323615
13   1   0   0
6411   1.000000   0.023862
13   1   0   0
6914   1.000000   0.008254
13   1   0   0
6915   1.000000   0.104147
13   1   0   0
6914   1.000000   0.068908
13   1   0   0
6661   1.000000   0.015584
13   1   0   0
6662   1.000000   0.260702
13   1   0   0
6408   1.000000   0.462388
13   1   0   0
7424   1.000000   0.138828
13   1   0   0
6914   1.000000   0.137611
13   1   0   0
6912   1.000000   0.126915
13   1   0   0
7165   1.000000   0.169831
13   1   0   0
7417   1.000000   0.137614
13   1   0   0
7164   1.000000   0.137543
13   1   0   0
7418   1.000000   0.197226
13   1   0   0
7418   1.000000   0.257486
13   1   0   0
7417   1.000000   0.161167
13   1   0   0
7414   1.000000   0.035767
13   1   0   0
7416   1.000000   0.524979
13   1   0   0
7668   1.000000   0.205609
13   1   0   0
7667   1.000000   0.005787
13   1   0   0
7669   1.000000   0.472216
13   1   0   0
7415   1.000000   0.615282
13   1   0   0
7425   1.000000   0.099714
13   1   0   0
7426   1.000000   0.002189
13   1   0   0
7678   1.000000   0.130735
13   1   0   0
7678   1.000000   0.155762
13   1   0   0
7677   1.000000   0.443914
13   1   0   0