# OC package for MODFLOW-NWT
HEAD PRINT FORMAT       0
HEAD SAVE UNIT         51
DRAWDOWN PRINT FORMAT   0
COMPACT BUDGET AUX
period 1 step 1
  print budget
  save budget
  save head
period 1 step 2
  print budget
  save budget
  save head
period 1 step 3
  print budget
  save budget
  save head
period 1 step 4
  print budget
  save budget
  save head
period 1 step 5
  print budget
  save budget
  save head
period 1 step 6
  print budget
  save budget
  save head
period 1 step 7
  print budget
  save budget
  save head
period 1 step 8
  print budget
  save budget
  save head
period 1 step 9
  print budget
  save budget
  save head
period 1 step 10
  print budget
  save budget
  save head
period 1 step 11
  print budget
  save budget
  save head
period 1 step 12
  print budget
  save budget
  save head
period 1 step 13
  print budget
  save budget
  save head
period 1 step 14
  print budget
  save budget
  save head
period 1 step 15
  print budget
  save budget
  save head
period 1 step 16
  print budget
  save budget
  save head
period 1 step 17
  print budget
  save budget
  save head
period 1 step 18
  print budget
  save budget
  save head
period 1 step 19
  print budget
  save budget
  save head
period 1 step 20
  print budget
  save budget
  save head
period 1 step 21
  print budget
  save budget
  save head
period 1 step 22
  print budget
  save budget
  save head
period 1 step 23
  print budget
  save budget
  save head
period 1 step 24
  print budget
  save budget
  save head
period 1 step 25
  print budget
  save budget
  save head
period 1 step 26
  print budget
  save budget
  save head
period 1 step 27
  print budget
  save budget
  save head
period 1 step 28
  print budget
  save budget
  save head
period 1 step 29
  print budget
  save budget
  save head
period 1 step 30
  print budget
  save budget
  save head
period 1 step 31
  save budget
  save head
  print budget
period 2 step 1
  print budget
  save budget
  save head
period 2 step 2
  print budget
  save budget
  save head
period 2 step 3
  print budget
  save budget
  save head
period 2 step 4
  print budget
  save budget
  save head
period 2 step 5
  print budget
  save budget
  save head
period 2 step 6
  print budget
  save budget
  save head
period 2 step 7
  print budget
  save budget
  save head
period 2 step 8
  print budget
  save budget
  save head
period 2 step 9
  print budget
  save budget
  save head
period 2 step 10
  print budget
  save budget
  save head
period 2 step 11
  print budget
  save budget
  save head
period 2 step 12
  print budget
  save budget
  save head
period 2 step 13
  print budget
  save budget
  save head
period 2 step 14
  print budget
  save budget
  save head
period 2 step 15
  print budget
  save budget
  save head
period 2 step 16
  print budget
  save budget
  save head
period 2 step 17
  print budget
  save budget
  save head
period 2 step 18
  print budget
  save budget
  save head
period 2 step 19
  print budget
  save budget
  save head
period 2 step 20
  print budget
  save budget
  save head
period 2 step 21
  print budget
  save budget
  save head
period 2 step 22
  print budget
  save budget
  save head
period 2 step 23
  print budget
  save budget
  save head
period 2 step 24
  print budget
  save budget
  save head
period 2 step 25
  print budget
  save budget
  save head
period 2 step 26
  print budget
  save budget
  save head
period 2 step 27
  print budget
  save budget
  save head
period 2 step 28
  save budget
  save head
  print budget
period 3 step 1
  print budget
  save budget
  save head
period 3 step 2
  print budget
  save budget
  save head
period 3 step 3
  print budget
  save budget
  save head
period 3 step 4
  print budget
  save budget
  save head
period 3 step 5
  print budget
  save budget
  save head
period 3 step 6
  print budget
  save budget
  save head
period 3 step 7
  print budget
  save budget
  save head
period 3 step 8
  print budget
  save budget
  save head
period 3 step 9
  print budget
  save budget
  save head
period 3 step 10
  print budget
  save budget
  save head
period 3 step 11
  print budget
  save budget
  save head
period 3 step 12
  print budget
  save budget
  save head
period 3 step 13
  print budget
  save budget
  save head
period 3 step 14
  print budget
  save budget
  save head
period 3 step 15
  print budget
  save budget
  save head
period 3 step 16
  print budget
  save budget
  save head
period 3 step 17
  print budget
  save budget
  save head
period 3 step 18
  print budget
  save budget
  save head
period 3 step 19
  print budget
  save budget
  save head
period 3 step 20
  print budget
  save budget
  save head
period 3 step 21
  print budget
  save budget
  save head
period 3 step 22
  print budget
  save budget
  save head
period 3 step 23
  print budget
  save budget
  save head
period 3 step 24
  print budget
  save budget
  save head
period 3 step 25
  print budget
  save budget
  save head
period 3 step 26
  print budget
  save budget
  save head
period 3 step 27
  print budget
  save budget
  save head
period 3 step 28
  print budget
  save budget
  save head
period 3 step 29
  print budget
  save budget
  save head
period 3 step 30
  print budget
  save budget
  save head
period 3 step 31
  save budget
  save head
  print budget
period 4 step 1
  print budget
  save budget
  save head
period 4 step 2
  print budget
  save budget
  save head
period 4 step 3
  print budget
  save budget
  save head
period 4 step 4
  print budget
  save budget
  save head
period 4 step 5
  print budget
  save budget
  save head
period 4 step 6
  print budget
  save budget
  save head
period 4 step 7
  print budget
  save budget
  save head
period 4 step 8
  print budget
  save budget
  save head
period 4 step 9
  print budget
  save budget
  save head
period 4 step 10
  print budget
  save budget
  save head
period 4 step 11
  print budget
  save budget
  save head
period 4 step 12
  print budget
  save budget
  save head
period 4 step 13
  print budget
  save budget
  save head
period 4 step 14
  print budget
  save budget
  save head
period 4 step 15
  print budget
  save budget
  save head
period 4 step 16
  print budget
  save budget
  save head
period 4 step 17
  print budget
  save budget
  save head
period 4 step 18
  print budget
  save budget
  save head
period 4 step 19
  print budget
  save budget
  save head
period 4 step 20
  print budget
  save budget
  save head
period 4 step 21
  print budget
  save budget
  save head
period 4 step 22
  print budget
  save budget
  save head
period 4 step 23
  print budget
  save budget
  save head
period 4 step 24
  print budget
  save budget
  save head
period 4 step 25
  print budget
  save budget
  save head
period 4 step 26
  print budget
  save budget
  save head
period 4 step 27
  print budget
  save budget
  save head
period 4 step 28
  print budget
  save budget
  save head
period 4 step 29
  print budget
  save budget
  save head
period 4 step 30
  save budget
  save head
  print budget
period 5 step 1
  print budget
  save budget
  save head
period 5 step 2
  print budget
  save budget
  save head
period 5 step 3
  print budget
  save budget
  save head
period 5 step 4
  print budget
  save budget
  save head
period 5 step 5
  print budget
  save budget
  save head
period 5 step 6
  print budget
  save budget
  save head
period 5 step 7
  print budget
  save budget
  save head
period 5 step 8
  print budget
  save budget
  save head
period 5 step 9
  print budget
  save budget
  save head
period 5 step 10
  print budget
  save budget
  save head
period 5 step 11
  print budget
  save budget
  save head
period 5 step 12
  print budget
  save budget
  save head
period 5 step 13
  print budget
  save budget
  save head
period 5 step 14
  print budget
  save budget
  save head
period 5 step 15
  print budget
  save budget
  save head
period 5 step 16
  print budget
  save budget
  save head
period 5 step 17
  print budget
  save budget
  save head
period 5 step 18
  print budget
  save budget
  save head
period 5 step 19
  print budget
  save budget
  save head
period 5 step 20
  print budget
  save budget
  save head
period 5 step 21
  print budget
  save budget
  save head
period 5 step 22
  print budget
  save budget
  save head
period 5 step 23
  print budget
  save budget
  save head
period 5 step 24
  print budget
  save budget
  save head
period 5 step 25
  print budget
  save budget
  save head
period 5 step 26
  print budget
  save budget
  save head
period 5 step 27
  print budget
  save budget
  save head
period 5 step 28
  print budget
  save budget
  save head
period 5 step 29
  print budget
  save budget
  save head
period 5 step 30
  print budget
  save budget
  save head
period 5 step 31
  save budget
  save head
  print budget
period 6 step 1
  print budget
  save budget
  save head
period 6 step 2
  print budget
  save budget
  save head
period 6 step 3
  print budget
  save budget
  save head
period 6 step 4
  print budget
  save budget
  save head
period 6 step 5
  print budget
  save budget
  save head
period 6 step 6
  print budget
  save budget
  save head
period 6 step 7
  print budget
  save budget
  save head
period 6 step 8
  print budget
  save budget
  save head
period 6 step 9
  print budget
  save budget
  save head
period 6 step 10
  print budget
  save budget
  save head
period 6 step 11
  print budget
  save budget
  save head
period 6 step 12
  print budget
  save budget
  save head
period 6 step 13
  print budget
  save budget
  save head
period 6 step 14
  print budget
  save budget
  save head
period 6 step 15
  print budget
  save budget
  save head
period 6 step 16
  print budget
  save budget
  save head
period 6 step 17
  print budget
  save budget
  save head
period 6 step 18
  print budget
  save budget
  save head
period 6 step 19
  print budget
  save budget
  save head
period 6 step 20
  print budget
  save budget
  save head
period 6 step 21
  print budget
  save budget
  save head
period 6 step 22
  print budget
  save budget
  save head
period 6 step 23
  print budget
  save budget
  save head
period 6 step 24
  print budget
  save budget
  save head
period 6 step 25
  print budget
  save budget
  save head
period 6 step 26
  print budget
  save budget
  save head
period 6 step 27
  print budget
  save budget
  save head
period 6 step 28
  print budget
  save budget
  save head
period 6 step 29
  print budget
  save budget
  save head
period 6 step 30
  save budget
  save head
  print budget
period 7 step 1
  print budget
  save budget
  save head
period 7 step 2
  print budget
  save budget
  save head
period 7 step 3
  print budget
  save budget
  save head
period 7 step 4
  print budget
  save budget
  save head
period 7 step 5
  print budget
  save budget
  save head
period 7 step 6
  print budget
  save budget
  save head
period 7 step 7
  print budget
  save budget
  save head
period 7 step 8
  print budget
  save budget
  save head
period 7 step 9
  print budget
  save budget
  save head
period 7 step 10
  print budget
  save budget
  save head
period 7 step 11
  print budget
  save budget
  save head
period 7 step 12
  print budget
  save budget
  save head
period 7 step 13
  print budget
  save budget
  save head
period 7 step 14
  print budget
  save budget
  save head
period 7 step 15
  print budget
  save budget
  save head
period 7 step 16
  print budget
  save budget
  save head
period 7 step 17
  print budget
  save budget
  save head
period 7 step 18
  print budget
  save budget
  save head
period 7 step 19
  print budget
  save budget
  save head
period 7 step 20
  print budget
  save budget
  save head
period 7 step 21
  print budget
  save budget
  save head
period 7 step 22
  print budget
  save budget
  save head
period 7 step 23
  print budget
  save budget
  save head
period 7 step 24
  print budget
  save budget
  save head
period 7 step 25
  print budget
  save budget
  save head
period 7 step 26
  print budget
  save budget
  save head
period 7 step 27
  print budget
  save budget
  save head
period 7 step 28
  print budget
  save budget
  save head
period 7 step 29
  print budget
  save budget
  save head
period 7 step 30
  print budget
  save budget
  save head
period 7 step 31
  save budget
  save head
  print budget
period 8 step 1
  print budget
  save budget
  save head
period 8 step 2
  print budget
  save budget
  save head
period 8 step 3
  print budget
  save budget
  save head
period 8 step 4
  print budget
  save budget
  save head
period 8 step 5
  print budget
  save budget
  save head
period 8 step 6
  print budget
  save budget
  save head
period 8 step 7
  print budget
  save budget
  save head
period 8 step 8
  print budget
  save budget
  save head
period 8 step 9
  print budget
  save budget
  save head
period 8 step 10
  print budget
  save budget
  save head
period 8 step 11
  print budget
  save budget
  save head
period 8 step 12
  print budget
  save budget
  save head
period 8 step 13
  print budget
  save budget
  save head
period 8 step 14
  print budget
  save budget
  save head
period 8 step 15
  print budget
  save budget
  save head
period 8 step 16
  print budget
  save budget
  save head
period 8 step 17
  print budget
  save budget
  save head
period 8 step 18
  print budget
  save budget
  save head
period 8 step 19
  print budget
  save budget
  save head
period 8 step 20
  print budget
  save budget
  save head
period 8 step 21
  print budget
  save budget
  save head
period 8 step 22
  print budget
  save budget
  save head
period 8 step 23
  print budget
  save budget
  save head
period 8 step 24
  print budget
  save budget
  save head
period 8 step 25
  print budget
  save budget
  save head
period 8 step 26
  print budget
  save budget
  save head
period 8 step 27
  print budget
  save budget
  save head
period 8 step 28
  print budget
  save budget
  save head
period 8 step 29
  print budget
  save budget
  save head
period 8 step 30
  print budget
  save budget
  save head
period 8 step 31
  save budget
  save head
  print budget
period 9 step 1
  print budget
  save budget
  save head
period 9 step 2
  print budget
  save budget
  save head
period 9 step 3
  print budget
  save budget
  save head
period 9 step 4
  print budget
  save budget
  save head
period 9 step 5
  print budget
  save budget
  save head
period 9 step 6
  print budget
  save budget
  save head
period 9 step 7
  print budget
  save budget
  save head
period 9 step 8
  print budget
  save budget
  save head
period 9 step 9
  print budget
  save budget
  save head
period 9 step 10
  print budget
  save budget
  save head
period 9 step 11
  print budget
  save budget
  save head
period 9 step 12
  print budget
  save budget
  save head
period 9 step 13
  print budget
  save budget
  save head
period 9 step 14
  print budget
  save budget
  save head
period 9 step 15
  print budget
  save budget
  save head
period 9 step 16
  print budget
  save budget
  save head
period 9 step 17
  print budget
  save budget
  save head
period 9 step 18
  print budget
  save budget
  save head
period 9 step 19
  print budget
  save budget
  save head
period 9 step 20
  print budget
  save budget
  save head
period 9 step 21
  print budget
  save budget
  save head
period 9 step 22
  print budget
  save budget
  save head
period 9 step 23
  print budget
  save budget
  save head
period 9 step 24
  print budget
  save budget
  save head
period 9 step 25
  print budget
  save budget
  save head
period 9 step 26
  print budget
  save budget
  save head
period 9 step 27
  print budget
  save budget
  save head
period 9 step 28
  print budget
  save budget
  save head
period 9 step 29
  print budget
  save budget
  save head
period 9 step 30
  save budget
  save head
  print budget
period 10 step 1
  print budget
  save budget
  save head
period 10 step 2
  print budget
  save budget
  save head
period 10 step 3
  print budget
  save budget
  save head
period 10 step 4
  print budget
  save budget
  save head
period 10 step 5
  print budget
  save budget
  save head
period 10 step 6
  print budget
  save budget
  save head
period 10 step 7
  print budget
  save budget
  save head
period 10 step 8
  print budget
  save budget
  save head
period 10 step 9
  print budget
  save budget
  save head
period 10 step 10
  print budget
  save budget
  save head
period 10 step 11
  print budget
  save budget
  save head
period 10 step 12
  print budget
  save budget
  save head
period 10 step 13
  print budget
  save budget
  save head
period 10 step 14
  print budget
  save budget
  save head
period 10 step 15
  print budget
  save budget
  save head
period 10 step 16
  print budget
  save budget
  save head
period 10 step 17
  print budget
  save budget
  save head
period 10 step 18
  print budget
  save budget
  save head
period 10 step 19
  print budget
  save budget
  save head
period 10 step 20
  print budget
  save budget
  save head
period 10 step 21
  print budget
  save budget
  save head
period 10 step 22
  print budget
  save budget
  save head
period 10 step 23
  print budget
  save budget
  save head
period 10 step 24
  print budget
  save budget
  save head
period 10 step 25
  print budget
  save budget
  save head
period 10 step 26
  print budget
  save budget
  save head
period 10 step 27
  print budget
  save budget
  save head
period 10 step 28
  print budget
  save budget
  save head
period 10 step 29
  print budget
  save budget
  save head
period 10 step 30
  print budget
  save budget
  save head
period 10 step 31
  save budget
  save head
  print budget
period 11 step 1
  print budget
  save budget
  save head
period 11 step 2
  print budget
  save budget
  save head
period 11 step 3
  print budget
  save budget
  save head
period 11 step 4
  print budget
  save budget
  save head
period 11 step 5
  print budget
  save budget
  save head
period 11 step 6
  print budget
  save budget
  save head
period 11 step 7
  print budget
  save budget
  save head
period 11 step 8
  print budget
  save budget
  save head
period 11 step 9
  print budget
  save budget
  save head
period 11 step 10
  print budget
  save budget
  save head
period 11 step 11
  print budget
  save budget
  save head
period 11 step 12
  print budget
  save budget
  save head
period 11 step 13
  print budget
  save budget
  save head
period 11 step 14
  print budget
  save budget
  save head
period 11 step 15
  print budget
  save budget
  save head
period 11 step 16
  print budget
  save budget
  save head
period 11 step 17
  print budget
  save budget
  save head
period 11 step 18
  print budget
  save budget
  save head
period 11 step 19
  print budget
  save budget
  save head
period 11 step 20
  print budget
  save budget
  save head
period 11 step 21
  print budget
  save budget
  save head
period 11 step 22
  print budget
  save budget
  save head
period 11 step 23
  print budget
  save budget
  save head
period 11 step 24
  print budget
  save budget
  save head
period 11 step 25
  print budget
  save budget
  save head
period 11 step 26
  print budget
  save budget
  save head
period 11 step 27
  print budget
  save budget
  save head
period 11 step 28
  print budget
  save budget
  save head
period 11 step 29
  print budget
  save budget
  save head
period 11 step 30
  save budget
  save head
  print budget
period 12 step 1
  print budget
  save budget
  save head
period 12 step 2
  print budget
  save budget
  save head
period 12 step 3
  print budget
  save budget
  save head
period 12 step 4
  print budget
  save budget
  save head
period 12 step 5
  print budget
  save budget
  save head
period 12 step 6
  print budget
  save budget
  save head
period 12 step 7
  print budget
  save budget
  save head
period 12 step 8
  print budget
  save budget
  save head
period 12 step 9
  print budget
  save budget
  save head
period 12 step 10
  print budget
  save budget
  save head
period 12 step 11
  print budget
  save budget
  save head
period 12 step 12
  print budget
  save budget
  save head
period 12 step 13
  print budget
  save budget
  save head
period 12 step 14
  print budget
  save budget
  save head
period 12 step 15
  print budget
  save budget
  save head
period 12 step 16
  print budget
  save budget
  save head
period 12 step 17
  print budget
  save budget
  save head
period 12 step 18
  print budget
  save budget
  save head
period 12 step 19
  print budget
  save budget
  save head
period 12 step 20
  print budget
  save budget
  save head
period 12 step 21
  print budget
  save budget
  save head
period 12 step 22
  print budget
  save budget
  save head
period 12 step 23
  print budget
  save budget
  save head
period 12 step 24
  print budget
  save budget
  save head
period 12 step 25
  print budget
  save budget
  save head
period 12 step 26
  print budget
  save budget
  save head
period 12 step 27
  print budget
  save budget
  save head
period 12 step 28
  print budget
  save budget
  save head
period 12 step 29
  print budget
  save budget
  save head
period 12 step 30
  print budget
  save budget
  save head
period 12 step 31
  save budget
  save head
  print budget
period 13 step 1
  print budget
  save budget
  save head
period 13 step 2
  print budget
  save budget
  save head
period 13 step 3
  print budget
  save budget
  save head
period 13 step 4
  print budget
  save budget
  save head
period 13 step 5
  print budget
  save budget
  save head
period 13 step 6
  print budget
  save budget
  save head
period 13 step 7
  print budget
  save budget
  save head
period 13 step 8
  print budget
  save budget
  save head
period 13 step 9
  print budget
  save budget
  save head
period 13 step 10
  print budget
  save budget
  save head
period 13 step 11
  print budget
  save budget
  save head
period 13 step 12
  print budget
  save budget
  save head
period 13 step 13
  print budget
  save budget
  save head
period 13 step 14
  print budget
  save budget
  save head
period 13 step 15
  print budget
  save budget
  save head
period 13 step 16
  print budget
  save budget
  save head
period 13 step 17
  print budget
  save budget
  save head
period 13 step 18
  print budget
  save budget
  save head
period 13 step 19
  print budget
  save budget
  save head
period 13 step 20
  print budget
  save budget
  save head
period 13 step 21
  print budget
  save budget
  save head
period 13 step 22
  print budget
  save budget
  save head
period 13 step 23
  print budget
  save budget
  save head
period 13 step 24
  print budget
  save budget
  save head
period 13 step 25
  print budget
  save budget
  save head
period 13 step 26
  print budget
  save budget
  save head
period 13 step 27
  print budget
  save budget
  save head
period 13 step 28
  print budget
  save budget
  save head
period 13 step 29
  print budget
  save budget
  save head
period 13 step 30
  print budget
  save budget
  save head
period 13 step 31
  save budget
  save head
  print budget
period 14 step 1
  print budget
  save budget
  save head
period 14 step 2
  print budget
  save budget
  save head
period 14 step 3
  print budget
  save budget
  save head
period 14 step 4
  print budget
  save budget
  save head
period 14 step 5
  print budget
  save budget
  save head
period 14 step 6
  print budget
  save budget
  save head
period 14 step 7
  print budget
  save budget
  save head
period 14 step 8
  print budget
  save budget
  save head
period 14 step 9
  print budget
  save budget
  save head
period 14 step 10
  print budget
  save budget
  save head
period 14 step 11
  print budget
  save budget
  save head
period 14 step 12
  print budget
  save budget
  save head
period 14 step 13
  print budget
  save budget
  save head
period 14 step 14
  print budget
  save budget
  save head
period 14 step 15
  print budget
  save budget
  save head
period 14 step 16
  print budget
  save budget
  save head
period 14 step 17
  print budget
  save budget
  save head
period 14 step 18
  print budget
  save budget
  save head
period 14 step 19
  print budget
  save budget
  save head
period 14 step 20
  print budget
  save budget
  save head
period 14 step 21
  print budget
  save budget
  save head
period 14 step 22
  print budget
  save budget
  save head
period 14 step 23
  print budget
  save budget
  save head
period 14 step 24
  print budget
  save budget
  save head
period 14 step 25
  print budget
  save budget
  save head
period 14 step 26
  print budget
  save budget
  save head
period 14 step 27
  print budget
  save budget
  save head
period 14 step 28
  save budget
  save head
  print budget
period 15 step 1
  print budget
  save budget
  save head
period 15 step 2
  print budget
  save budget
  save head
period 15 step 3
  print budget
  save budget
  save head
period 15 step 4
  print budget
  save budget
  save head
period 15 step 5
  print budget
  save budget
  save head
period 15 step 6
  print budget
  save budget
  save head
period 15 step 7
  print budget
  save budget
  save head
period 15 step 8
  print budget
  save budget
  save head
period 15 step 9
  print budget
  save budget
  save head
period 15 step 10
  print budget
  save budget
  save head
period 15 step 11
  print budget
  save budget
  save head
period 15 step 12
  print budget
  save budget
  save head
period 15 step 13
  print budget
  save budget
  save head
period 15 step 14
  print budget
  save budget
  save head
period 15 step 15
  print budget
  save budget
  save head
period 15 step 16
  print budget
  save budget
  save head
period 15 step 17
  print budget
  save budget
  save head
period 15 step 18
  print budget
  save budget
  save head
period 15 step 19
  print budget
  save budget
  save head
period 15 step 20
  print budget
  save budget
  save head
period 15 step 21
  print budget
  save budget
  save head
period 15 step 22
  print budget
  save budget
  save head
period 15 step 23
  print budget
  save budget
  save head
period 15 step 24
  print budget
  save budget
  save head
period 15 step 25
  print budget
  save budget
  save head
period 15 step 26
  print budget
  save budget
  save head
period 15 step 27
  print budget
  save budget
  save head
period 15 step 28
  print budget
  save budget
  save head
period 15 step 29
  print budget
  save budget
  save head
period 15 step 30
  print budget
  save budget
  save head
period 15 step 31
  save budget
  save head
  print budget
period 16 step 1
  print budget
  save budget
  save head
period 16 step 2
  print budget
  save budget
  save head
period 16 step 3
  print budget
  save budget
  save head
period 16 step 4
  print budget
  save budget
  save head
period 16 step 5
  print budget
  save budget
  save head
period 16 step 6
  print budget
  save budget
  save head
period 16 step 7
  print budget
  save budget
  save head
period 16 step 8
  print budget
  save budget
  save head
period 16 step 9
  print budget
  save budget
  save head
period 16 step 10
  print budget
  save budget
  save head
period 16 step 11
  print budget
  save budget
  save head
period 16 step 12
  print budget
  save budget
  save head
period 16 step 13
  print budget
  save budget
  save head
period 16 step 14
  print budget
  save budget
  save head
period 16 step 15
  print budget
  save budget
  save head
period 16 step 16
  print budget
  save budget
  save head
period 16 step 17
  print budget
  save budget
  save head
period 16 step 18
  print budget
  save budget
  save head
period 16 step 19
  print budget
  save budget
  save head
period 16 step 20
  print budget
  save budget
  save head
period 16 step 21
  print budget
  save budget
  save head
period 16 step 22
  print budget
  save budget
  save head
period 16 step 23
  print budget
  save budget
  save head
period 16 step 24
  print budget
  save budget
  save head
period 16 step 25
  print budget
  save budget
  save head
period 16 step 26
  print budget
  save budget
  save head
period 16 step 27
  print budget
  save budget
  save head
period 16 step 28
  print budget
  save budget
  save head
period 16 step 29
  print budget
  save budget
  save head
period 16 step 30
  save budget
  save head
  print budget
period 17 step 1
  print budget
  save budget
  save head
period 17 step 2
  print budget
  save budget
  save head
period 17 step 3
  print budget
  save budget
  save head
period 17 step 4
  print budget
  save budget
  save head
period 17 step 5
  print budget
  save budget
  save head
period 17 step 6
  print budget
  save budget
  save head
period 17 step 7
  print budget
  save budget
  save head
period 17 step 8
  print budget
  save budget
  save head
period 17 step 9
  print budget
  save budget
  save head
period 17 step 10
  print budget
  save budget
  save head
period 17 step 11
  print budget
  save budget
  save head
period 17 step 12
  print budget
  save budget
  save head
period 17 step 13
  print budget
  save budget
  save head
period 17 step 14
  print budget
  save budget
  save head
period 17 step 15
  print budget
  save budget
  save head
period 17 step 16
  print budget
  save budget
  save head
period 17 step 17
  print budget
  save budget
  save head
period 17 step 18
  print budget
  save budget
  save head
period 17 step 19
  print budget
  save budget
  save head
period 17 step 20
  print budget
  save budget
  save head
period 17 step 21
  print budget
  save budget
  save head
period 17 step 22
  print budget
  save budget
  save head
period 17 step 23
  print budget
  save budget
  save head
period 17 step 24
  print budget
  save budget
  save head
period 17 step 25
  print budget
  save budget
  save head
period 17 step 26
  print budget
  save budget
  save head
period 17 step 27
  print budget
  save budget
  save head
period 17 step 28
  print budget
  save budget
  save head
period 17 step 29
  print budget