# Name file for MODFLOW-NWT, generated by Flopy version 3.3.5.
#xll:0.0; yll:-123300.0; rotation:0.0; units:meters; lenuni:2; start_datetime:1-1-1970
LIST               2  ..\modflow\output\rr_tr.list
DIS               11  ..\modflow\input\rr_tr.dis
BAS6              13  ..\modflow\input\rr_tr.bas
GHB               23  ..\modflow\input\rr_tr.ghb
UPW               31  ..\modflow\input\rr_tr.upw
HFB6              29  ..\modflow\input\rr_tr.hfb
SFR               17  ..\modflow\input\rr_tr.sfr
UZF               19  ..\modflow\input\rr_tr.uzf
LAK              119  ..\modflow\input\rr_tr.lak
WEL               20  ..\modflow\input\rural_pumping.wel
MNW2              21  ..\modflow\input\rr_tr.mnw2
MNWi              22  ..\modflow\input\rr_tr.mnwi
HOB               39  ..\modflow\input\rr_tr.hob
GAGE             120  ..\modflow\input\rr_tr_heavy.gage
OC                14  ..\modflow\input\rr_tr_heavy.oc
NWT               32  ..\modflow\input\rr_tr.nwt
DATA            1001  ..\modflow\input\Potter_Valley_inflow.dat
DATA            1002  ..\modflow\input\Mendo_Lake_release.dat
DATA            1003  ..\modflow\input\Sonoma_Lake_release.dat
DATA            1004  ..\modflow\input\Mark_West_inflow.dat
DATA            1005  ..\modflow\input\rubber_dam_spillway_outflow.dat
DATA            1006  ..\modflow\input\rubber_dam_gate_outflow.dat
DATA            1007  ..\modflow\input\rubber_dam_pond_outflow.dat
DATA            1009  ..\modflow\input\Meno_bathy.dat
DATA            1010  ..\modflow\input\Sonoma_bathy.dat
DATA            1011  ..\modflow\input\Bevans_bathy.dat
DATA            1012  ..\modflow\input\Lolonis_bathy.dat
DATA            1013  ..\modflow\input\Crawford_bathy.dat
DATA            1014  ..\modflow\input\Bradford_bathy.dat
DATA            1015  ..\modflow\input\Merlo_bathy.dat
DATA            1016  ..\modflow\input\CoenC3_bathy.dat
DATA            1017  ..\modflow\input\Murray_bathy.dat
DATA            1018  ..\modflow\input\Mallacomes_bathy.dat
DATA            1019  ..\modflow\input\Towibalyla_bathy.dat
DATA            1020  ..\modflow\input\rubber_dam_lake.dat
DATA            1021  ..\modflow\output\pumping_reduction.out
DATA              24  ..\modflow\output\mnwi.out
DATA(BINARY)      55  ..\modflow\output\rr_tr.cbc REPLACE
DATA              81  ..\modflow\output\rr_tr.sfr.out
DATA            1008  ..\modflow\output\rr_tr.uzf1008.out
DATA            1022  ..\modflow\output\rr_tr.hob.out
DATA            1023  ..\modflow\output\RUSSIAN_R_JOHNSONS_BEACH_GUERNEVILLE.go
DATA            1024  ..\modflow\output\AUSTIN_C_NR_CAZADERO.go
DATA            1025  ..\modflow\output\RUSSIAN_R_NR_GUERNEVILLE.go
DATA            1026  ..\modflow\output\RUSSIAN_R_NR_WINDSOR.go
DATA            1027  ..\modflow\output\DRY_C_NR_MOUTH_NR_HEALDSBURG.go
DATA            1028  ..\modflow\output\RUSSIAN_R_NR_HEALDSBURG.go
DATA            1029  ..\modflow\output\RUSSIAN_R_DIGGER_BEND_NR_HEALDSBURG.go
DATA            1030  ..\modflow\output\MAACAMA_C_NR_KELLOGG.go
DATA            1031  ..\modflow\output\DRY_C_BLW_LAMBERT_BR_NR_GEYSERVILLE.go
DATA            1032  ..\modflow\output\RUSSIAN_R_JIMTOWN.go
DATA            1033  ..\modflow\output\DRY_C_NR_GEYSERVILLE.go
DATA            1034  ..\modflow\output\RUSSIAN_R_GEYSERVILLE.go
DATA            1035  ..\modflow\output\BIG_SULPHUR_C_A_G_RESORT_NR_CLOVERDALE.go
DATA            1036  ..\modflow\output\BIG_SULPHUR_C_NR_CLOVERDALE.go
DATA            1037  ..\modflow\output\RUSSIAN_R_NR_CLOVERDALE.go
DATA            1038  ..\modflow\output\RUSSIAN_R_NR_HOPLAND.go
DATA            1039  ..\modflow\output\RUSSIAN_R_NR_TALMAG.go
DATA            1040  ..\modflow\output\RUSSIAN_R_NR_UKIAH.go
DATA            1041  ..\modflow\output\EF_RUSSIAN_R_NR_UKIAH.go
DATA            1042  ..\modflow\output\EF_RUSSIAN_R_NR_CALPELLA.go
DATA            1043  ..\modflow\output\mendo_lake_bdg.lak.out
DATA            1044  ..\modflow\output\sonoma_lake_bdg.lak.out
DATA            1045  ..\modflow\output\rubber_dam_lake_bdg.lak.out
DATA            1047  ..\modflow\output\subbasin_22.go
DATA            1048  ..\modflow\output\subbasin_21.go
DATA(BINARY)      51  ..\modflow\output\rr_tr.hds REPLACE
AG               121  ..\modflow\input\rr_tr_heavy.ag
DATA            1046  ..\modflow\output\pumping_reduction_ag.out
DATA            5000  ..\modflow\input\ag_diversions\div_seg_450.txt
DATA            5001  ..\modflow\input\ag_diversions\div_seg_452.txt
DATA            5002  ..\modflow\input\ag_diversions\div_seg_453.txt
DATA            5003  ..\modflow\input\ag_diversions\div_seg_454.txt
DATA            5004  ..\modflow\input\ag_diversions\div_seg_455.txt
DATA            5005  ..\modflow\input\ag_diversions\div_seg_456.txt
DATA            5006  ..\modflow\input\ag_diversions\div_seg_476.txt
DATA            5007  ..\modflow\input\ag_diversions\div_seg_477.txt
DATA            5008  ..\modflow\input\ag_diversions\div_seg_478.txt
DATA            5009  ..\modflow\input\ag_diversions\div_seg_480.txt
DATA            5010  ..\modflow\input\ag_diversions\div_seg_481.txt
DATA            5011  ..\modflow\input\ag_diversions\div_seg_482.txt
DATA            5012  ..\modflow\input\ag_diversions\div_seg_483.txt
DATA            5013  ..\modflow\input\ag_diversions\div_seg_484.txt
DATA            5014  ..\modflow\input\ag_diversions\div_seg_486.txt
DATA            5015  ..\modflow\input\ag_diversions\div_seg_487.txt
DATA            5016  ..\modflow\input\ag_diversions\div_seg_488.txt
DATA            5017  ..\modflow\input\ag_diversions\div_seg_489.txt
DATA            5018  ..\modflow\input\ag_diversions\div_seg_490.txt
DATA            5019  ..\modflow\input\ag_diversions\div_seg_493.txt
DATA            5020  ..\modflow\input\ag_diversions\div_seg_495.txt
DATA            5021  ..\modflow\input\ag_diversions\div_seg_496.txt
DATA            5022  ..\modflow\input\ag_diversions\div_seg_498.txt
DATA            5023  ..\modflow\input\ag_diversions\div_seg_500.txt
DATA            5024  ..\modflow\input\ag_diversions\div_seg_501.txt
DATA            5025  ..\modflow\input\ag_diversions\div_seg_502.txt
DATA            5026  ..\modflow\input\ag_diversions\div_seg_503.txt
DATA            5027  ..\modflow\input\ag_diversions\div_seg_504.txt
DATA            5028  ..\modflow\input\ag_diversions\div_seg_505.txt
DATA            5029  ..\modflow\input\ag_diversions\div_seg_506.txt
DATA            5030  ..\modflow\input\ag_diversions\div_seg_507.txt
DATA            5031  ..\modflow\input\ag_diversions\div_seg_508.txt
DATA            5032  ..\modflow\input\ag_diversions\div_seg_509.txt
DATA            5033  ..\modflow\input\ag_diversions\div_seg_511.txt
DATA            5034  ..\modflow\input\ag_diversions\div_seg_512.txt
DATA            5035  ..\modflow\input\ag_diversions\div_seg_514.txt
DATA            5036  ..\modflow\input\ag_diversions\div_seg_520.txt
DATA            5037  ..\modflow\input\ag_diversions\div_seg_521.txt
DATA            5038  ..\modflow\input\ag_diversions\div_seg_523.txt
DATA            5039  ..\modflow\input\ag_diversions\div_seg_524.txt
DATA            5040  ..\modflow\input\ag_diversions\div_seg_525.txt
DATA            5041  ..\modflow\input\ag_diversions\div_seg_526.txt
DATA            5042  ..\modflow\input\ag_diversions\div_seg_527.txt
DATA            5043  ..\modflow\input\ag_diversions\div_seg_528.txt
DATA            5044  ..\modflow\input\ag_diversions\div_seg_529.txt
DATA            5045  ..\modflow\input\ag_diversions\div_seg_530.txt
DATA            5046  ..\modflow\input\ag_diversions\div_seg_532.txt
DATA            5047  ..\modflow\input\ag_diversions\div_seg_534.txt
DATA            5048  ..\modflow\input\ag_diversions\div_seg_535.txt
DATA            5049  ..\modflow\input\ag_diversions\div_seg_536.txt
DATA            5050  ..\modflow\input\ag_diversions\div_seg_537.txt
DATA            5051  ..\modflow\input\ag_diversions\div_seg_538.txt
DATA            5052  ..\modflow\input\ag_diversions\div_seg_539.txt
DATA            5053  ..\modflow\input\ag_diversions\div_seg_540.txt
DATA            5054  ..\modflow\input\ag_diversions\div_seg_541.txt
DATA            5055  ..\modflow\input\ag_diversions\div_seg_542.txt
DATA            5056  ..\modflow\input\ag_diversions\div_seg_544.txt
DATA            5057  ..\modflow\input\ag_diversions\div_seg_545.txt
DATA            5058  ..\modflow\input\ag_diversions\div_seg_546.txt
DATA            5059  ..\modflow\input\ag_diversions\div_seg_547.txt
DATA            5060  ..\modflow\input\ag_diversions\div_seg_548.txt
DATA            5061  ..\modflow\input\ag_diversions\div_seg_549.txt
DATA            5062  ..\modflow\input\ag_diversions\div_seg_550.txt
DATA            5063  ..\modflow\input\ag_diversions\div_seg_552.txt
DATA            5064  ..\modflow\input\ag_diversions\div_seg_553.txt
DATA            5065  ..\modflow\input\ag_diversions\div_seg_554.txt
DATA            5066  ..\modflow\input\ag_diversions\div_seg_555.txt
DATA            5067  ..\modflow\input\ag_diversions\div_seg_556.txt
DATA            5068  ..\modflow\input\ag_diversions\div_seg_557.txt
DATA            5069  ..\modflow\input\ag_diversions\div_seg_559.txt
DATA            5070  ..\modflow\input\ag_diversions\div_seg_561.txt
DATA            5071  ..\modflow\input\ag_diversions\div_seg_569.txt
DATA            5072  ..\modflow\input\ag_diversions\div_seg_573.txt
DATA            5073  ..\modflow\input\ag_diversions\div_seg_574.txt
DATA            5074  ..\modflow\input\ag_diversions\div_seg_575.txt
DATA            5075  ..\modflow\input\ag_diversions\div_seg_579.txt
DATA            5076  ..\modflow\input\ag_diversions\div_seg_580.txt
DATA            5077  ..\modflow\input\ag_diversions\div_seg_581.txt
DATA            5078  ..\modflow\input\ag_diversions\div_seg_582.txt
DATA            5079  ..\modflow\input\ag_diversions\div_seg_583.txt
DATA            5080  ..\modflow\input\ag_diversions\div_seg_585.txt
DATA            5081  ..\modflow\input\ag_diversions\div_seg_588.txt
DATA            5082  ..\modflow\input\ag_diversions\div_seg_589.txt
DATA            5083  ..\modflow\input\ag_diversions\div_seg_590.txt
DATA            5084  ..\modflow\input\ag_diversions\div_seg_591.txt
DATA            5085  ..\modflow\input\ag_diversions\div_seg_595.txt
DATA            5086  ..\modflow\input\ag_diversions\div_seg_596.txt
DATA            5087  ..\modflow\input\ag_diversions\div_seg_599.txt
DATA            5088  ..\modflow\input\ag_diversions\div_seg_609.txt
DATA            5089  ..\modflow\input\ag_diversions\div_seg_613.txt
DATA            5090  ..\modflow\input\ag_diversions\div_seg_614.txt
DATA            5091  ..\modflow\input\ag_diversions\div_seg_615.txt
DATA            5092  ..\modflow\input\ag_diversions\div_seg_617.txt
DATA            5093  ..\modflow\input\ag_diversions\div_seg_618.txt
DATA            5094  ..\modflow\input\ag_diversions\div_seg_619.txt
DATA            5095  ..\modflow\input\ag_diversions\div_seg_620.txt
DATA            5096  ..\modflow\input\ag_diversions\div_seg_622.txt
DATA            5097  ..\modflow\input\ag_diversions\div_seg_625.txt
DATA            5098  ..\modflow\input\ag_diversions\div_seg_626.txt
DATA            5099  ..\modflow\input\ag_diversions\div_seg_627.txt
DATA            5100  ..\modflow\input\ag_diversions\div_seg_628.txt
DATA            5101  ..\modflow\input\ag_diversions\div_seg_629.txt
DATA            5102  ..\modflow\input\ag_diversions\div_seg_630.txt
DATA            5103  ..\modflow\input\ag_diversions\div_seg_632.txt
DATA            5104  ..\modflow\input\ag_diversions\div_seg_634.txt
DATA            5105  ..\modflow\input\ag_diversions\div_seg_637.txt
DATA            5106  ..\modflow\input\ag_diversions\div_seg_640.txt
DATA            5107  ..\modflow\input\ag_diversions\div_seg_641.txt
DATA            7004  ..\modflow\output\ag_iupseg_83.out
DATA            7005  ..\modflow\output\ag_iupseg_170.out
DATA            7006  ..\modflow\output\ag_iupseg_161.out
DATA            7007  ..\modflow\output\ag_iupseg_153.out
DATA            7008  ..\modflow\output\ag_iupseg_101.out
DATA            7009  ..\modflow\output\ag_iupseg_88.out
DATA            7010  ..\modflow\output\ag_iupseg_97.out
DATA            7011  ..\modflow\output\ag_iupseg_76.out
DATA            7012  ..\modflow\output\ag_iupseg_81.out
DATA            7013  ..\modflow\output\ag_iupseg_20.out
DATA            7014  ..\modflow\output\ag_iupseg_438.out	
DATA            7015  ..\modflow\output\ag_iupseg_393.out		
DATA            7016  ..\modflow\output\ag_iupseg_389.out		
DATA            7017  ..\modflow\output\ag_iupseg_383.out	
DATA            7018  ..\modflow\output\ag_iupseg_372.out		
DATA            7019  ..\modflow\output\ag_iupseg_348.out	
DATA            7020  ..\modflow\output\ag_iupseg_341.out		
DATA            7021  ..\modflow\output\ag_iupseg_357.out		
DATA            7022  ..\modflow\output\ag_iupseg_281.out		
DATA            7023  ..\modflow\output\ag_iupseg_214.out		
DATA            7024  ..\modflow\output\ag_iupseg_228.out		
DATA            7025  ..\modflow\output\ag_iupseg_262.out			
DATA            7026  ..\modflow\output\ag_iupseg_270.out		
DATA            7027  ..\modflow\output\ag_iupseg_278.out			
DATA            7028  ..\modflow\output\ag_iupseg_282.out		
DATA            7029  ..\modflow\output\ag_iupseg_296.out		
DATA            7030  ..\modflow\output\ag_iupseg_308.out		
DATA            7031  ..\modflow\output\ag_iupseg_318.out	
DATA            7032  ..\modflow\output\ag_iupseg_323.out		
DATA            7033  ..\modflow\output\ag_iupseg_310.out	
DATA            7034  ..\modflow\output\ag_iupseg_408.out		
DATA            7035  ..\modflow\output\ag_iupseg_422.out		
DATA            7036  ..\modflow\output\ag_iupseg_416.out		
DATA            7037  ..\modflow\output\ag_iupseg_426.out			
DATA            7038  ..\modflow\output\ag_iupseg_365.out
DATA	6000	..\modflow\output\div_seg_451_flow.out
DATA	6001	..\modflow\output\div_seg_479_flow.out
DATA	6002	..\modflow\output\div_seg_491_flow.out
DATA	6003	..\modflow\output\div_seg_492_flow.out
DATA	6004	..\modflow\output\div_seg_513_flow.out
DATA	6005	..\modflow\output\div_seg_516_flow.out
DATA	6006	..\modflow\output\div_seg_517_flow.out
DATA	6007	..\modflow\output\div_seg_518_flow.out
DATA	6008	..\modflow\output\div_seg_519_flow.out
DATA	6009	..\modflow\output\div_seg_522_flow.out
DATA	6010	..\modflow\output\div_seg_543_flow.out
DATA	6011	..\modflow\output\div_seg_551_flow.out
DATA	6012	..\modflow\output\div_seg_562_flow.out
DATA	6013	..\modflow\output\div_seg_563_flow.out
DATA	6014	..\modflow\output\div_seg_564_flow.out
DATA	6015	..\modflow\output\div_seg_565_flow.out
DATA	6016	..\modflow\output\div_seg_566_flow.out
DATA	6017	..\modflow\output\div_seg_568_flow.out
DATA	6018	..\modflow\output\div_seg_572_flow.out
DATA	6019	..\modflow\output\div_seg_576_flow.out
DATA	6020	..\modflow\output\div_seg_577_flow.out
DATA	6021	..\modflow\output\div_seg_578_flow.out
DATA	6022	..\modflow\output\div_seg_586_flow.out
DATA	6023	..\modflow\output\div_seg_592_flow.out
DATA	6024	..\modflow\output\div_seg_594_flow.out
DATA	6025	..\modflow\output\div_seg_601_flow.out
DATA	6026	..\modflow\output\div_seg_603_flow.out
DATA	6027	..\modflow\output\div_seg_605_flow.out
DATA	6028	..\modflow\output\div_seg_606_flow.out
DATA	6029	..\modflow\output\div_seg_608_flow.out
DATA	6030	..\modflow\output\div_seg_612_flow.out
DATA	6031	..\modflow\output\div_seg_621_flow.out
DATA	6032	..\modflow\output\div_seg_624_flow.out
DATA	6033	..\modflow\output\div_seg_633_flow.out
DATA	6034	..\modflow\output\div_seg_635_flow.out
DATA	6035	..\modflow\output\div_seg_636_flow.out
DATA	6036	..\modflow\output\div_seg_638_flow.out
DATA	6037	..\modflow\output\div_seg_639_flow.out
DATA	6038	..\modflow\output\div_seg_642_flow.out
DATA	6039	..\modflow\output\div_seg_451_et.out
DATA	6040	..\modflow\output\div_seg_479_et.out
DATA	6041	..\modflow\output\div_seg_491_et.out
DATA	6042	..\modflow\output\div_seg_492_et.out
DATA	6043	..\modflow\output\div_seg_513_et.out
DATA	6044	..\modflow\output\div_seg_516_et.out
DATA	6045	..\modflow\output\div_seg_517_et.out
DATA	6046	..\modflow\output\div_seg_518_et.out
DATA	6047	..\modflow\output\div_seg_519_et.out
DATA	6048	..\modflow\output\div_seg_522_et.out
DATA	6049	..\modflow\output\div_seg_543_et.out
DATA	6050	..\modflow\output\div_seg_551_et.out
DATA	6051	..\modflow\output\div_seg_562_et.out
DATA	6052	..\modflow\output\div_seg_563_et.out
DATA	6053	..\modflow\output\div_seg_564_et.out
DATA	6054	..\modflow\output\div_seg_565_et.out
DATA	6055	..\modflow\output\div_seg_566_et.out
DATA	6056	..\modflow\output\div_seg_568_et.out
DATA	6057	..\modflow\output\div_seg_572_et.out
DATA	6058	..\modflow\output\div_seg_576_et.out
DATA	6059	..\modflow\output\div_seg_577_et.out
DATA	6060	..\modflow\output\div_seg_578_et.out
DATA	6061	..\modflow\output\div_seg_586_et.out
DATA	6062	..\modflow\output\div_seg_592_et.out
DATA	6063	..\modflow\output\div_seg_594_et.out
DATA	6064	..\modflow\output\div_seg_601_et.out
DATA	6065	..\modflow\output\div_seg_603_et.out
DATA	6066	..\modflow\output\div_seg_605_et.out
DATA	6067	..\modflow\output\div_seg_606_et.out
DATA	6068	..\modflow\output\div_seg_608_et.out
DATA	6069	..\modflow\output\div_seg_612_et.out
DATA	6070	..\modflow\output\div_seg_621_et.out
DATA	6071	..\modflow\output\div_seg_624_et.out
DATA	6072	..\modflow\output\div_seg_633_et.out
DATA	6073	..\modflow\output\div_seg_635_et.out
DATA	6074	..\modflow\output\div_seg_636_et.out
DATA	6075	..\modflow\output\div_seg_638_et.out
DATA	6076	..\modflow\output\div_seg_639_et.out
DATA	6077	..\modflow\output\div_seg_642_et.out
DATA			6500  ..\modflow\output\ag_well_65.out
DATA			6501  ..\modflow\output\ag_well_416.out
DATA			6502  ..\modflow\output\ag_well_417.out
DATA			6503  ..\modflow\output\ag_well_418.out
DATA			6504  ..\modflow\output\ag_well_419.out
DATA			6505  ..\modflow\output\ag_well_434.out
DATA			6506  ..\modflow\output\ag_wellet_65.out
DATA			6507  ..\modflow\output\ag_wellet_416.out
DATA			6508  ..\modflow\output\ag_wellet_417.out
DATA			6509  ..\modflow\output\ag_wellet_418.out
DATA			6510  ..\modflow\output\ag_wellet_419.out
DATA			6511  ..\modflow\output\ag_wellet_434.out
DATA			 3000 ..\modflow\output\ag_pond_14231.out
DATA			 3001 ..\modflow\output\ag_pond_14483.out
DATA			 3002 ..\modflow\output\ag_pond_14485.out
DATA			 3003 ..\modflow\output\ag_pond_13979.out
DATA			 3004 ..\modflow\output\ag_pond_14233.out
DATA			 3005 ..\modflow\output\ag_pond_14738.out
DATA			 3006 ..\modflow\output\ag_pond_14739.out
DATA			 3007 ..\modflow\output\ag_pond_14495.out
DATA			 3008 ..\modflow\output\ag_pond_17018.out
DATA			 3009 ..\modflow\output\ag_pond_15246.out
DATA			 3010 ..\modflow\output\ag_pond_35498.out
DATA			 3011 ..\modflow\output\ag_pond_35750.out
DATA			 3012 ..\modflow\output\ag_pond_35751.out
DATA			 3013 ..\modflow\output\ag_pond_47670.out
DATA			 3014 ..\modflow\output\ag_pond_49417.out
DATA			 3015 ..\modflow\output\ag_pond_48416.out
DATA			 3016 ..\modflow\output\ag_pond_47913.out
DATA			 3017 ..\modflow\output\ag_pond_48666.out
DATA			 3018 ..\modflow\output\ag_pond_49674.out
DATA			 3019 ..\modflow\output\ag_pond_48151.out
DATA			 3020 ..\modflow\output\ag_pond_49164.out
DATA			 3021 ..\modflow\output\ag_pond_48147.out
DATA			 3022 ..\modflow\output\ag_pond_46891.out
DATA			 3023 ..\modflow\output\ag_pond_50683.out
DATA			 3024 ..\modflow\output\ag_pond_49421.out
DATA			 3025 ..\modflow\output\ag_pond_46133.out
DATA			 3026 ..\modflow\output\ag_pond_70742.out
DATA			 3027 ..\modflow\output\ag_pond_75564.out
DATA			 3028 ..\modflow\output\ag_pond_76575.out
DATA			 3029 ..\modflow\output\ag_pond_75822.out
DATA			 3030 ..\modflow\output\ag_pond_75569.out
DATA			 3031 ..\modflow\output\ag_pond_74813.out
DATA			 3032 ..\modflow\output\ag_pond_76321.out
DATA			 3033 ..\modflow\output\ag_pond_74780.out
DATA			 3034 ..\modflow\output\ag_pond_85907.out
DATA			 3035 ..\modflow\output\ag_pond_86919.out
DATA			 3036 ..\modflow\output\ag_pond_51462.out
DATA			 3037 ..\modflow\output\ag_pond_48936.out
DATA			 3038 ..\modflow\output\ag_pond_48426.out
DATA			 3039 ..\modflow\output\ag_pond_49695.out
DATA			 3040 ..\modflow\output\ag_pond_52217.out
DATA			 3041 ..\modflow\output\ag_pond_50203.out
DATA			 3042 ..\modflow\output\ag_pond_49949.out
DATA			 3043 ..\modflow\output\ag_pond_49444.out
DATA			 3044 ..\modflow\output\ag_pond_52204.out
DATA			 3045 ..\modflow\output\ag_pond_51952.out
DATA			 3046 ..\modflow\output\ag_pond_52200.out
DATA			 3047 ..\modflow\output\ag_pond_51707.out
DATA			 3048 ..\modflow\output\ag_pond_51197.out
DATA			 3049 ..\modflow\output\ag_pond_49939.out
DATA			 3050 ..\modflow\output\ag_pond_50193.out
DATA			 3051 ..\modflow\output\ag_pond_51962.out
DATA			 3052 ..\modflow\output\ag_pond_50447.out
DATA			 3053 ..\modflow\output\ag_pond_53257.out
DATA			 3054 ..\modflow\output\ag_pond_51740.out
DATA			 3055 ..\modflow\output\ag_pond_51744.out
DATA			 3056 ..\modflow\output\ag_pond_52245.out
DATA			 3057 ..\modflow\output\ag_pond_52752.out
DATA			 3058 ..\modflow\output\ag_pond_52498.out
DATA			 3059 ..\modflow\output\ag_pond_52999.out
DATA			 3060 ..\modflow\output\ag_pond_51986.out
DATA			 3061 ..\modflow\output\ag_pond_52535.out
DATA			 3062 ..\modflow\output\ag_pond_49991.out
DATA			 3063 ..\modflow\output\ag_pond_51983.out
DATA			 3064 ..\modflow\output\ag_pond_51484.out
DATA			 3065 ..\modflow\output\ag_pond_51480.out
DATA			 3066 ..\modflow\output\ag_pond_51228.out
DATA			 3067 ..\modflow\output\ag_pond_51979.out
DATA			 3068 ..\modflow\output\ag_pond_51475.out
DATA			 3069 ..\modflow\output\ag_pond_52490.out
DATA			 3070 ..\modflow\output\ag_pond_51982.out
DATA			 3071 ..\modflow\output\ag_pond_54270.out
DATA			 3072 ..\modflow\output\ag_pond_51981.out
DATA			 3073 ..\modflow\output\ag_pond_49698.out
DATA			 3074 ..\modflow\output\ag_pond_51735.out
DATA			 3075 ..\modflow\output\ag_pond_49193.out
DATA			 3076 ..\modflow\output\ag_pond_49448.out
DATA			 3077 ..\modflow\output\ag_pond_43324.out
DATA			 3078 ..\modflow\output\ag_pond_42060.out
DATA			 3079 ..\modflow\output\ag_pond_43330.out
DATA			 3080 ..\modflow\output\ag_pond_46873.out
DATA			 3081 ..\modflow\output\ag_pond_44862.out
DATA			 3082 ..\modflow\output\ag_pond_47373.out
DATA			 3083 ..\modflow\output\ag_pond_46104.out
DATA			 3084 ..\modflow\output\ag_pond_48382.out
DATA			 3085 ..\modflow\output\ag_pond_57225.out
DATA			 3086 ..\modflow\output\ag_pond_44329.out
DATA			 3087 ..\modflow\output\ag_pond_44831.out
DATA			 3088 ..\modflow\output\ag_pond_55716.out
DATA			 3089 ..\modflow\output\ag_pond_39540.out
DATA			 3090 ..\modflow\output\ag_pond_40281.out
DATA			 3091 ..\modflow\output\ag_pond_38527.out
DATA			 3092 ..\modflow\output\ag_pond_39284.out
DATA			 3093 ..\modflow\output\ag_pond_38273.out
DATA			 3094 ..\modflow\output\ag_pond_39541.out
DATA			 3095 ..\modflow\output\ag_pond_40557.out
DATA			 3096 ..\modflow\output\ag_pond_40052.out
DATA			 3097 ..\modflow\output\ag_pond_41068.out
DATA			 3098 ..\modflow\output\ag_pond_39542.out
DATA			 3099 ..\modflow\output\ag_pond_39810.out
DATA			 3100 ..\modflow\output\ag_pond_39805.out
DATA			 3101 ..\modflow\output\ag_pond_39553.out
DATA			 3102 ..\modflow\output\ag_pond_39548.out
DATA			 3103 ..\modflow\output\ag_pond_38788.out
DATA			 3104 ..\modflow\output\ag_pond_38792.out
DATA			 3105 ..\modflow\output\ag_pond_38283.out
DATA			 3106 ..\modflow\output\ag_pond_38281.out
DATA			 3107 ..\modflow\output\ag_pond_38028.out
DATA			 3108 ..\modflow\output\ag_pond_40817.out
DATA			 3109 ..\modflow\output\ag_pond_39292.out
DATA			 3110 ..\modflow\output\ag_pond_39293.out
DATA			 3111 ..\modflow\output\ag_pond_38279.out
DATA			 3112 ..\modflow\output\ag_pond_39811.out
DATA			 3113 ..\modflow\output\ag_pond_38288.out
DATA			 3114 ..\modflow\output\ag_pond_39557.out
DATA			 3115 ..\modflow\output\ag_pond_39048.out
DATA			 3116 ..\modflow\output\ag_pond_39303.out
DATA			 3117 ..\modflow\output\ag_pond_39301.out
DATA			 3118 ..\modflow\output\ag_pond_41083.out
DATA			 3119 ..\modflow\output\ag_pond_41085.out
DATA			 3120 ..\modflow\output\ag_pond_41086.out
DATA			 3121 ..\modflow\output\ag_pond_41852.out
DATA			 3122 ..\modflow\output\ag_pond_41344.out
DATA			 3123 ..\modflow\output\ag_pond_41346.out
DATA			 3124 ..\modflow\output\ag_pond_40842.out
DATA			 3125 ..\modflow\output\ag_pond_44628.out
DATA			 3126 ..\modflow\output\ag_pond_44871.out
DATA			 3127 ..\modflow\output\ag_pond_45637.out
DATA			 3128 ..\modflow\output\ag_pond_43362.out
DATA			 3129 ..\modflow\output\ag_pond_43868.out
DATA			 3130 ..\modflow\output\ag_pond_43101.out
DATA			 3131 ..\modflow\output\ag_pond_43850.out
DATA			 3132 ..\modflow\output\ag_pond_43087.out
DATA			 3133 ..\modflow\output\ag_pond_41570.out
DATA			 3134 ..\modflow\output\ag_pond_41571.out
DATA			 3135 ..\modflow\output\ag_pond_42336.out
DATA			 3136 ..\modflow\output\ag_pond_41332.out
DATA			 3137 ..\modflow\output\ag_pond_40572.out
DATA			 3138 ..\modflow\output\ag_pond_39812.out
DATA			 3139 ..\modflow\output\ag_pond_36503.out
DATA			 3140 ..\modflow\output\ag_pond_36758.out
DATA			 3141 ..\modflow\output\ag_pond_36000.out
DATA			 3142 ..\modflow\output\ag_pond_35749.out
DATA			 3143 ..\modflow\output\ag_pond_37513.out
DATA			 3144 ..\modflow\output\ag_pond_36508.out
DATA			 3145 ..\modflow\output\ag_pond_35496.out
DATA			 3146 ..\modflow\output\ag_pond_33740.out
DATA			 3147 ..\modflow\output\ag_pond_34742.out
DATA			 3148 ..\modflow\output\ag_pond_33217.out
DATA			 3149 ..\modflow\output\ag_pond_32454.out
DATA			 3150 ..\modflow\output\ag_pond_32204.out
DATA			 3151 ..\modflow\output\ag_pond_31443.out
DATA			 3152 ..\modflow\output\ag_pond_32452.out
DATA			 3153 ..\modflow\output\ag_pond_31949.out
DATA			 3154 ..\modflow\output\ag_pond_30936.out
DATA			 3155 ..\modflow\output\ag_pond_31191.out
DATA			 3156 ..\modflow\output\ag_pond_31441.out
DATA			 3157 ..\modflow\output\ag_pond_33978.out
DATA			 3158 ..\modflow\output\ag_pond_31190.out
DATA			 3159 ..\modflow\output\ag_pond_33723.out
DATA			 3160 ..\modflow\output\ag_pond_31189.out
DATA			 3161 ..\modflow\output\ag_pond_33721.out
DATA			 3162 ..\modflow\output\ag_pond_34477.out
DATA			 3163 ..\modflow\output\ag_pond_34228.out
DATA			 3164 ..\modflow\output\ag_pond_33973.out
DATA			 3165 ..\modflow\output\ag_pond_33971.out
DATA			 3166 ..\modflow\output\ag_pond_33717.out
DATA			 3167 ..\modflow\output\ag_pond_34976.out
DATA			 3168 ..\modflow\output\ag_pond_34209.out
DATA			 3169 ..\modflow\output\ag_pond_37240.out
DATA			 3170 ..\modflow\output\ag_pond_33457.out
DATA			 3171 ..\modflow\output\ag_pond_33710.out
DATA			 3172 ..\modflow\output\ag_pond_29671.out
DATA			 3173 ..\modflow\output\ag_pond_29925.out
DATA			 3174 ..\modflow\output\ag_pond_29914.out
DATA			 3175 ..\modflow\output\ag_pond_30927.out
DATA			 3176 ..\modflow\output\ag_pond_30168.out
DATA			 3177 ..\modflow\output\ag_pond_30160.out
DATA			 3178 ..\modflow\output\ag_pond_33687.out
DATA			 3179 ..\modflow\output\ag_pond_32939.out
DATA			 3180 ..\modflow\output\ag_pond_33195.out
DATA			 3181 ..\modflow\output\ag_pond_31934.out
DATA			 3182 ..\modflow\output\ag_pond_31429.out
DATA			 3183 ..\modflow\output\ag_pond_31682.out
DATA			 3184 ..\modflow\output\ag_pond_29412.out
DATA			 3185 ..\modflow\output\ag_pond_31176.out
DATA			 3186 ..\modflow\output\ag_pond_29160.out
DATA			 3187 ..\modflow\output\ag_pond_28656.out
DATA			 3188 ..\modflow\output\ag_pond_28152.out
DATA			 3189 ..\modflow\output\ag_pond_28657.out
DATA			 3190 ..\modflow\output\ag_pond_26886.out
DATA			 3191 ..\modflow\output\ag_pond_29158.out
DATA			 3192 ..\modflow\output\ag_pond_27131.out
DATA			 3193 ..\modflow\output\ag_pond_26122.out
DATA			 3194 ..\modflow\output\ag_pond_25619.out
DATA			 3195 ..\modflow\output\ag_pond_27637.out
DATA			 3196 ..\modflow\output\ag_pond_26384.out
DATA			 3197 ..\modflow\output\ag_pond_25883.out
DATA			 3198 ..\modflow\output\ag_pond_24867.out
DATA			 3199 ..\modflow\output\ag_pond_26117.out
DATA			 3200 ..\modflow\output\ag_pond_25613.out
DATA			 3201 ..\modflow\output\ag_pond_28903.out
DATA			 3202 ..\modflow\output\ag_pond_27632.out
DATA			 3203 ..\modflow\output\ag_pond_29900.out
DATA			 3204 ..\modflow\output\ag_pond_29153.out
DATA			 3205 ..\modflow\output\ag_pond_28646.out
DATA			 3206 ..\modflow\output\ag_pond_28647.out
DATA			 3207 ..\modflow\output\ag_pond_23842.out
DATA			 3208 ..\modflow\output\ag_pond_23335.out
DATA			 3209 ..\modflow\output\ag_pond_20296.out
DATA			 3210 ..\modflow\output\ag_pond_20299.out
DATA			 3211 ..\modflow\output\ag_pond_20297.out
DATA			 3212 ..\modflow\output\ag_pond_20045.out
DATA			 3213 ..\modflow\output\ag_pond_20301.out
DATA			 3214 ..\modflow\output\ag_pond_20302.out
DATA			 3215 ..\modflow\output\ag_pond_19294.out
DATA			 3216 ..\modflow\output\ag_pond_18508.out
DATA			 3217 ..\modflow\output\ag_pond_18763.out
DATA			 3218 ..\modflow\output\ag_pond_16986.out
DATA			 3219 ..\modflow\output\ag_pond_20526.out
DATA			 3220 ..\modflow\output\ag_pond_19024.out
DATA			 3221 ..\modflow\output\ag_pond_19786.out
DATA			 3222 ..\modflow\output\ag_pond_18773.out
DATA			 3223 ..\modflow\output\ag_pond_19783.out
DATA			 3224 ..\modflow\output\ag_pond_19787.out
DATA			 3225 ..\modflow\output\ag_pond_19026.out
DATA			 3226 ..\modflow\output\ag_pond_17509.out
DATA			 3227 ..\modflow\output\ag_pond_17255.out
DATA			 3228 ..\modflow\output\ag_pond_16237.out
DATA			 3229 ..\modflow\output\ag_pond_15487.out
DATA			 3230 ..\modflow\output\ag_pond_13974.out
DATA			 3231 ..\modflow\output\ag_pond_13722.out
DATA			 3232 ..\modflow\output\ag_pond_14735.out
DATA			 3233 ..\modflow\output\ag_pond_13975.out
DATA			 3234 ..\modflow\output\ag_pond_14978.out
DATA			 3235 ..\modflow\output\ag_pond_14725.out
DATA			 3236 ..\modflow\output\ag_pond_14981.out
DATA			 3237 ..\modflow\output\ag_pond_15491.out
DATA			 3238 ..\modflow\output\ag_pond_15486.out
DATA			 3239 ..\modflow\output\ag_pond_15741.out
DATA			 3240 ..\modflow\output\ag_pond_14479.out
DATA			 3241 ..\modflow\output\ag_pond_16500.out