# WEL package for MODFLOW-NWT generated by Flopy 3.3.5
OPTIONS
SPECIFY 0.1 1014
END
       437        55 
       437         0 # stress period 1
         3       162        80       -120.6757
         2        59        57      -113.40994
         1       133        75       -28.47919
         2       129        73       -28.47919
         1       129        73       -28.47919
         1       129        73       -28.47919
         1       129        73       -28.47919
         3        61        67      -27.093094
         3        61        67      -27.093094
         3        61        68      -27.093094
         2        62        67      -27.093094
         2        62        67      -27.093094
         3        34        24       -77.41807
         3        32        32       -77.41807
         3        29        28       -77.41807
         2       102        68      -40.514763
         2       101        67      -40.514763
         2       102        68      -40.514763
         1        32        85       -9.523147
         1        32        85       -9.523147
         2       117        66       -39.50936
         1       137        77      -20.902153
         1       133        71      -20.902153
         1       133        71      -20.902153
         1       136        77      -20.902153
         1       233       117      -12.789302
         1       155        84       -62.06067
         1       155        85       -62.06067
         1       155        84       -62.06067
         2        63        65       -5.829438
         2        63        63       -4.577743
         2        63        64       -4.577743
         2        63        65     -0.49234688
         2        65        61      -1.8803902
         2        95        62       -404.5511
         1        95        62       -404.5511
         1        96        62       -404.5511
         1        95        62       -404.5511
         2        95        62       -404.5511
         2        89        61        -599.322
         1        91        57        -599.322
         2        94        60        -599.322
         1        98        57        -599.322
         1        91        58        -599.322
         1        91        58        -599.322
         1        97        57        -599.322
         1        96        59        -599.322
         2       106        59       -672.4199
         1       106        59       -672.4199
         1       106        59       -672.4199
         2       116        63       -672.4199
         2       116        63       -672.4199
         1        79        57      -202.25151
         1        81        57      -202.25151
         1        81        56      -202.25151
         1        81        57      -202.25151
         1        81        57      -202.25151
         1        80        57      -202.25151
         1        80        57      -202.25151
         1        80        57      -202.25151
         1        80        57      -202.25151
         1        80        57      -202.25151
         1        80        57      -202.25151
         1        80        57      -202.25151
         1        80        57      -202.25151
         1        80        57      -202.25151
         1        80        57      -202.25151
         1        80        57      -202.25151
         1        80        57      -202.25151
         1        80        57      -202.25151
         1        80        57      -202.25151
         1        80        57      -202.25151
         3       162        80      -260.07294
         1       161        84      -260.07294
         3       162        80      -260.07294
         2       274       166      -0.7576098
         2       322        88       -12.84625
         2       322        88       -12.84625
         3       326        82       -12.84625
         3       324        84       -12.84625
         3       324        84       -12.84625
         3       326        82       -12.84625
         2       322        88       -12.84625
         3       324        83       -12.84625
         2       322        88       -12.84625
         1       228       113      -186.20493
         1       228       112      -186.20493
         2       248       138      -37.394863
         1       250       138      -37.394863
         1       250       138      -37.394863
         2       248       138      -37.394863
         2       369       160      -17.596909
         2       369       160      -17.596909
         2       369       160      -17.596909
         2       369       160      -17.596909
         1       235       120      -122.86574
         1       287       160      -26.296568
         1       287       160      -26.296568
         1       287       160      -26.296568
         1       287       160      -26.296568
         1       227       111      -168.84557
         2       238       113      -49.242485
         1       234       117      -49.242485
         3       343        99      -31.727589
         3       329        96      -5.3870006
         3       329        96      -5.3870006
         2       341        97       -4.615362
         2       340        98       -4.615362
         2       341        97       -4.615362
         2       341        97      -11.683724
         3       344       100      -10.742142
         2       344       100      -10.742142
         3       344        98      -10.742142
         2       335        94       -22.46429
         2       335        94       -22.46429
         2       338        95      -12.567676
         3       338        95      -12.567676
         2       332        94      -5.0743227
         2       332        94      -5.0743227
         2       335        94      -5.0743227
         3       335        94      -5.0743227
         2       335        94      -5.0743227
         3       361        85       -17.07233
         1       281       171      -12.677577
         1       281       171      -12.677577
         1       296       158      -12.641526
         1       296       158      -12.641526
         1       358       156      -6.9902935
         1       358       156      -6.9902935
         2       374       151      -23.657995
         3       232       125       -34.23448
         2       360       154      -18.231766
         1       278       174      -1.0936635
         1       254       147      -78.536255
         2       380       162      -1.6283666
         2       379       162      -1.6283666
         2       379       162      -1.6283666
         2       376       157       -6.279199
         2       376       157       -6.279199
         2       376       157       -6.279199
         3       305       148       -5.543544
         3       305       148       -5.543544
         3       306       148       -5.543544
         3       224       116      -32.119152
         3       224       117      -32.119152
         1       333       131      -2.2432835
         1       333       131      -2.2432835
         1       333       131      -2.2432835
         1       349       101      -35.373978
         1       349       100      -35.373978
         1       349       101      -35.373978
         1       349       101      -35.373978
         1       355       154      -6.7527165
         1       355       154      -6.7527165
         1       355       154      -6.7527165
         1       344       156      -15.119076
         1       344       156      -15.119076
         2       370       156      -15.119076
         3       279       179       -96.44304
         2       271       151       -73.24161
         1       271       151       -73.24161
         3       271       151       -73.24161
         1       353        98      -166.69379
         2       364       158      -42.147655
         2       363       158      -42.147655
         2       363       158      -42.147655
         2       364       158      -42.147655
         1       214       112      -7.3900704
         1       214       112      -7.3900704
         3       308       157     -12.4208555
         3       308       160     -12.4208555
         3       308       159     -12.4208555
         3       308       159     -12.4208555
         3       309       159     -12.4208555
         3       309       159     -12.4208555
         3       308       160     -12.4208555
         3       308       160     -12.4208555
         2       308       160       -11.07705
         3       308       160       -11.07705
         3       308       160       -11.07705
         1       298       149      -1.0929878
         2       254       137       -32.35637
         1       255       139       -32.35637
         1       255       139       -32.35637
         2       255       136       -32.35637
         2       254       137       -32.35637
         3       367       129      -2.6843314
         3       367       129      -2.6843314
         3       367       130      -2.6843314
         3       369       130      -2.6843314
         3       367       129      -2.6843314
         3       361       121       -8.624086
         3       361       122       -8.624086
         3       362       122       -8.624086
         2       269       152       -74.80237
         3       269       152       -74.80237
         1       286       175      -14.395052
         2       284       179      -14.395052
         2       283       180      -14.395052
         2       348       148      -32.510757
         2       348       148      -32.510757
         2       265       151      -17.744434
         1       265       151      -17.744434
         2       266       149      -17.744434
         3       259       133        -9.36566
         3       259       134        -9.36566
         3       258       133        -9.36566
         1       303       156      -15.559036
         3       326       150      -2.9723136
         3       220       170      -1.1564089
         3       222       169      -1.1564089
         2       207       108      -1.2408105
         2       207       108      -1.2408105
         1       278       137      -2.6161766
         1       278       135      -5.5415745
         1       278       135      -5.5415745
         3       275       128      -1.8822544
         3       277       129      -1.8822544
         2       309       219       -4.789138
         1       353        98      -106.60275
         1       297       151      -1.4327363
         1       297       151      -1.4327363
         2       278       144      -1.1275357
         2       278       144      -1.1275357
         1       273       156       -2.642623
         1       273       156       -2.642623
         3       278       159       -2.642623
         1       260       124      -3.2810154
         1       260       123      -3.2810154
         3       351       132      -16.173475
         2       351       133      -16.173475
         3       351       132      -16.173475
         2       351       133      -16.173475
         2       351       133      -16.173475
         3       351       132      -16.173475
         2       351       133      -16.173475
         3       328        97       -7.168147
         3       328        97       -7.168147
         3       326        88      -1.6795127
         3       326        88      -1.6795127
         3       326        88      -1.6795127
         3       258       110     -0.29840088
         3       258       110     -0.29840088
         2       353       152      -3.3295364
         2       353       152      -3.3295364
         2       353       152      -3.3295364
         2       364       159      -4.6987777
         2       364       159      -4.6987777
         1       278       135       -8.654744
         1       279       136       -8.654744
         1       279       136       -8.654744
         1       279       136       -8.654744
         2       266       157      -14.892746
         3       275       177      -157.20813
         2       280       172      -157.20813
         2       280       172      -157.20813
         3       275       177      -157.20813
         3       273       177      -157.20813
         3       368       127      -1.2317272
         3       368       127      -1.2317272
         2       353       151      -0.6987443
         2       353       151      -0.6987443
         1       267       151       -16.96521
         2       266       149       -16.96521
         2       274       156       -16.96521
         2       273       167       -1.783424
         1       267       159      -3.2200983
         2       267       159      -3.2200983
         1       276       132      -0.5340715
         1       277       132      -0.5340715
         2       324       113     -0.71844435
         3       324       113     -0.71844435
         3       324       113     -0.71844435
         3       324       113     -0.71844435
         1       216       109      -0.7425145
         1       216       110      -0.7425145
         1       216       110      -0.7425145
         1       216       109      -0.7425145
         3       279       178       -2.645974
         3       368       143       -5.536424
         3       368       143       -5.536424
         2       375       158     -0.22889465
         2       375       158     -0.22889465
         1       245       130      -1.4515617
         2       244       126      -1.4515617
         1       245       130      -1.4515617
         3       273       153       -53.48768
         3       272       150       -53.48768
         1       258       120        -48.4848
         1       257       121        -48.4848
         1       257       121        -48.4848
         1       236       119      -18.915695
         1       235       119      -18.915695
         1       236       119      -18.915695
         1       235       119      -18.915695
         1       235       119      -18.915695
         1       301       151     -0.64456606
         3       302       148     -0.64456606
         2       364       151      -11.426127
         3       364       151      -11.426127
         1       353        99      -0.5686433
         1       353        98      -0.5686433
         1       353        99      -0.5686433
         3       276       148      -7.5629077
         3       277       147      -7.5629077
         2       281       145      -7.5629077
         2       360       152      -2.5797734
         3       366       142      -2.5797734
         1       297       155      -0.2451976
         1       297       155      -0.2451976
         2       312       159      -12.263283
         2       312       159      -12.263283
         2       312       158      -12.263283
         2       359       152      -3.9364989
         2       359       152      -3.9364989
         1       359       152      -3.9364989
         2       359       152      -3.9364989
         2       276       139       -59.98955
         1       277       138       -59.98955
         1       298       157      -33.473465
         2       298       157      -33.473465
         2       275       167      -57.424007
         2       275       168      -57.424007
         3       308       147      -2.4737782
         3       308       147      -2.4737782
         3       308       147      -2.4737782
         1       247       132       -97.87206
         1       247       132       -97.87206
         2       364       159       -231.2541
         1       320       154      -107.30034
         1       319       154      -107.30034
         2       356       151       -8.025032
         1       314       219      -4.5649815
         1       335       144       -2.993007
         1       335       144       -2.993007
         3       362       157       -8.122677
         1       220       111      -385.62277
         1       220       111      -385.62277
         1       220       111      -385.62277
         1       219       111      -385.62277
         1       220       111      -385.62277
         1       220       112      -385.62277
         1       220       111      -385.62277
         1       220       111      -385.62277
         1       219       111      -385.62277
         1       219       111      -385.62277
         1       219       111      -385.62277
         2       332       119      -255.27696
         2       332       119      -255.27696
         2       332       119      -255.27696
         1       333       114      -255.27696
         2       332       118      -255.27696
         3       334       106      -255.27696
         2       332       118      -255.27696
         2       332       118      -255.27696
         2       332       118      -255.27696
         1       286       156      -219.95914
         1       286       156      -219.95914
         1       286       156      -219.95914
         1       286       156      -219.95914
         1       295       156      -219.95914
         1       295       156      -219.95914
         1       295       156      -219.95914
         1       295       156      -219.95914
         1       286       157      -219.95914
         1       298       149      -219.95914
         1       295       157      -219.95914
         1       295       157      -219.95914
         1       298       149      -219.95914
         1       297       149      -219.95914
         1       297       149      -219.95914
         1       296       149      -219.95914
         3       287       155      -219.95914
         1       295       156      -219.95914
         1       297       149      -219.95914
         1       286       156      -219.95914
         1       335       143      -223.12279
         1       335       143      -223.12279
         1       336       142      -223.12279
         1       293       164      -643.43427
         1       289       162      -643.43427
         1       328       148      -161.69731
         1       328       148      -161.69731
         1       315       156      -1752.7655
         1       315       156      -1752.7655
         1       315       156      -1752.7655
         1       315       156      -1752.7655
         1       315       156      -1752.7655
         1       314       156      -1752.7655
         3       327       115      -104.46062
         3       327       115      -104.46062
         3       327       114      -104.46062
         1       336       144       -9844.577
         1       337       145       -9844.577
         1       337       146       -9844.577
         2       332       148       -9844.577
         1       331       148       -9844.577
         1       335       147       -9844.577
         1       336       147       -9844.577
         1       335       147       -9844.577
         1       336       147       -9844.577
         1       336       147       -9844.577
         1       335       147       -9844.577
         1       335       147       -9844.577
         3       333       154       -9844.577
         1       331       149       -9844.577
         1       331       148       -9844.577
         1       331       148       -9844.577
         1       329       149       -9844.577
         1       329       149       -9844.577
         1       329       149       -9844.577
         1       257       141      -148.03424
         1       257       141      -148.03424
         1       257       141      -148.03424
         1       257       142      -148.03424
         2       334       131       -8.963711
         2       334       130       -8.963711
         2       334       130       -8.963711
         1       334       131       -8.963711
         3       334       130       -8.963711
         3       334       130       -8.963711
         3       333       129       -8.963711
         1       345       110      -208.26378
         2       346       109      -208.26378
         3       329       103      -208.26378
         1       345       109      -208.26378
         2       346       109      -208.26378
         2       348       112      -107.74038
         1       347       111      -107.74038
         3       323       113      -130.93256
         3       312       112      -1.3224455
         3       311       111      -1.3224455
         3       258       115      -18.560072
         2       254       115      -18.560072
         1       336       144       1118.8694
         1       336       145       1118.8694
         1       336       146       1118.8694
