pcf
* control data
             restart          estimation
       412       212        10         0         4
         1         1              single               point
   2.000000E+01  -3.000000E+00   3.000000E-01   1.000000E-02        -7
   1.000000E+01   1.000000E+01   1.000000E-03
   1.000000E-01
        30   1.000000E-02         3         3   1.000000E-02         3
         0         0         0
* singular value decomposition
         1
  10000000    1.000000E-06
1
* parameter groups
upw_ks                 relative              3.0000000000E-02      0.0 switch                2.0000000000E+00      parabolic             1.0000000000E-05      5.0000000000E-01      smaller              
uzf_surfk              relative              3.0000000000E-02      0.0 switch                2.0000000000E+00      parabolic             1.0000000000E-05      5.0000000000E-01      smaller              
uzf_vks                relative              3.0000000000E-02      0.0 switch                2.0000000000E+00      parabolic             1.0000000000E-05      5.0000000000E-01      smaller              
uzf_finf               relative              3.0000000000E-02      0.0 switch                2.0000000000E+00      parabolic             1.0000000000E-05      5.0000000000E-01      smaller              
sfr_ks                 relative              3.0000000000E-02      0.0 switch                2.0000000000E+00      parabolic             1.0000000000E-05      5.0000000000E-01      smaller              
upw_vka                relative              3.0000000000E-02      0.0 switch                2.0000000000E+00      parabolic             1.0000000000E-05      5.0000000000E-01      smaller              
sfr_spil               relative              3.0000000000E-02      0.0 switch                2.0000000000E+00      parabolic             1.0000000000E-05      5.0000000000E-01      smaller              
lak_cd                 relative              3.0000000000E-02      0.0 switch                2.0000000000E+00      parabolic             1.0000000000E-05      5.0000000000E-01      smaller              
well_rubber_dam        relative              3.0000000000E-02      0.0 switch                2.0000000000E+00      parabolic             1.0000000000E-05      5.0000000000E-01      smaller              
uzf_pet                relative              3.0000000000E-02      0.0 switch                2.0000000000E+00      parabolic             1.0000000000E-05      5.0000000000E-01      smaller              
* parameter data
finf_1	fixed	factor	0.4830353	1.00E-02	1.00E+00	uzf_finf	1.00E+00	0.00E+00	1
finf_10	fixed	factor	0.472504655	1.00E-02	1.00E+00	uzf_finf	1.00E+00	0.00E+00	1
finf_11	fixed	factor	0.472504652	1.00E-02	1.00E+00	uzf_finf	1.00E+00	0.00E+00	1
finf_12	fixed	factor	0.472504652	1.00E-02	1.00E+00	uzf_finf	1.00E+00	0.00E+00	1
finf_13	fixed	factor	0.472504625	1.00E-02	1.00E+00	uzf_finf	1.00E+00	0.00E+00	1
finf_14	fixed	factor	0.483035302	1.00E-02	1.00E+00	uzf_finf	1.00E+00	0.00E+00	1
finf_15	fixed	factor	0.4830353	1.00E-02	1.00E+00	uzf_finf	1.00E+00	0.00E+00	1
finf_16	fixed	factor	0.4830353	1.00E-02	1.00E+00	uzf_finf	1.00E+00	0.00E+00	1
finf_17	fixed	factor	0.483035296	1.00E-02	1.00E+00	uzf_finf	1.00E+00	0.00E+00	1
finf_18	fixed	factor	0.4830353	1.00E-02	1.00E+00	uzf_finf	1.00E+00	0.00E+00	1
finf_19	fixed	factor	0.483035302	1.00E-02	1.00E+00	uzf_finf	1.00E+00	0.00E+00	1
finf_2	fixed	factor	0.483035299	1.00E-02	1.00E+00	uzf_finf	1.00E+00	0.00E+00	1
finf_20	fixed	factor	0.528461941	1.00E-02	1.00E+00	uzf_finf	1.00E+00	0.00E+00	1
finf_21	fixed	factor	0.483035301	1.00E-02	1.00E+00	uzf_finf	1.00E+00	0.00E+00	1
finf_22	fixed	factor	0.483035304	1.00E-02	1.00E+00	uzf_finf	1.00E+00	0.00E+00	1
finf_3	fixed	factor	0.483035305	1.00E-02	1.00E+00	uzf_finf	1.00E+00	0.00E+00	1
finf_4	fixed	factor	0.410580006	1.00E-02	1.00E+00	uzf_finf	1.00E+00	0.00E+00	1
finf_5	fixed	factor	0.410580006	1.00E-02	1.00E+00	uzf_finf	1.00E+00	0.00E+00	1
finf_6	fixed	factor	0.483035299	1.00E-02	1.00E+00	uzf_finf	1.00E+00	0.00E+00	1
finf_7	fixed	factor	0.472504653	1.00E-02	1.00E+00	uzf_finf	1.00E+00	0.00E+00	1
finf_8	fixed	factor	0.47250465	1.00E-02	1.00E+00	uzf_finf	1.00E+00	0.00E+00	1
finf_9	fixed	factor	0.472504648	1.00E-02	1.00E+00	uzf_finf	1.00E+00	0.00E+00	1
ks_1	log	factor	0.844641467	1.00E-05	5.00E+02	upw_ks	1.00E+00	0.00E+00	1
ks_10	log	factor	1.764336873	1.00E-05	5.00E+02	upw_ks	1.00E+00	0.00E+00	1
ks_100	log	factor	1.00E-05	1.00E-06	5.00E+02	upw_ks	1.00E+00	0.00E+00	1
ks_101	log	factor	0.000842476	1.00E-05	5.00E+02	upw_ks	1.00E+00	0.00E+00	1
ks_102	log	factor	7.93E-05	1.00E-06	5.00E+02	upw_ks	1.00E+00	0.00E+00	1
ks_103	log	factor	0.000432305	1.00E-05	5.00E+02	upw_ks	1.00E+00	0.00E+00	1
ks_104	log	factor	1.00E-05	1.00E-06	5.00E+02	upw_ks	1.00E+00	0.00E+00	1
ks_105	log	factor	1.01E-05	1.00E-06	5.00E+02	upw_ks	1.00E+00	0.00E+00	1
ks_106	log	factor	0.000145074	1.00E-05	5.00E+02	upw_ks	1.00E+00	0.00E+00	1
ks_107	log	factor	0.000311098	1.00E-05	5.00E+02	upw_ks	1.00E+00	0.00E+00	1
ks_108	log	factor	4.452467539	1.00E-05	5.00E+02	upw_ks	1.00E+00	0.00E+00	1
ks_109	log	factor	7.174701888	1.00E-05	5.00E+02	upw_ks	1.00E+00	0.00E+00	1
ks_11	log	factor	0.306548359	1.00E-05	5.00E+02	upw_ks	1.00E+00	0.00E+00	1
ks_110	log	factor	3.899931409	1.00E-05	5.00E+02	upw_ks	1.00E+00	0.00E+00	1
ks_111	log	factor	4.82311	1.00E-05	5.00E+02	upw_ks	1.00E+00	0.00E+00	1
ks_112	log	factor	3.174298546	1.00E-05	5.00E+02	upw_ks	1.00E+00	0.00E+00	1
ks_113	log	factor	0.100993865	1.00E-05	5.00E+02	upw_ks	1.00E+00	0.00E+00	1
ks_114	log	factor	8.244121311	1.00E-05	5.00E+02	upw_ks	1.00E+00	0.00E+00	1
ks_115	log	factor	6.43723435	1.00E-05	5.00E+02	upw_ks	1.00E+00	0.00E+00	1
ks_116	log	factor	0.404346841	1.00E-05	5.00E+02	upw_ks	1.00E+00	0.00E+00	1
ks_117	log	factor	13.8759141	1.00E-05	5.00E+02	upw_ks	1.00E+00	0.00E+00	1
ks_118	log	factor	2.03328331	1.00E-05	5.00E+02	upw_ks	1.00E+00	0.00E+00	1
ks_119	log	factor	10.45286264	1.00E-05	5.00E+02	upw_ks	1.00E+00	0.00E+00	1
ks_12	log	factor	8.94753808	1.00E-05	5.00E+02	upw_ks	1.00E+00	0.00E+00	1
ks_120	log	factor	0.158409083	1.00E-05	5.00E+02	upw_ks	1.00E+00	0.00E+00	1
ks_121	log	factor	2.156214345	1.00E-05	5.00E+02	upw_ks	1.00E+00	0.00E+00	1
ks_122	log	factor	39.6403618	1.00E-05	5.00E+02	upw_ks	1.00E+00	0.00E+00	1
ks_123	log	factor	11.13610607	1.00E-05	5.00E+02	upw_ks	1.00E+00	0.00E+00	1
ks_124	log	factor	2.007113706	1.00E-05	5.00E+02	upw_ks	1.00E+00	0.00E+00	1
ks_125	log	factor	445.7118459	1.00E-05	5.00E+02	upw_ks	1.00E+00	0.00E+00	1
ks_126	log	factor	491.2238174	1.00E-05	5.00E+02	upw_ks	1.00E+00	0.00E+00	1
ks_127	log	factor	1.897672411	1.00E-05	5.00E+02	upw_ks	1.00E+00	0.00E+00	1
ks_128	log	factor	3.44410501	1.00E-05	5.00E+02	upw_ks	1.00E+00	0.00E+00	1
ks_129	log	factor	6.002781055	1.00E-05	5.00E+02	upw_ks	1.00E+00	0.00E+00	1
ks_13	log	factor	1.688222182	1.00E-05	5.00E+02	upw_ks	1.00E+00	0.00E+00	1
ks_130	log	factor	13.22678661	1.00E-05	5.00E+02	upw_ks	1.00E+00	0.00E+00	1
ks_131	log	factor	0.000201129	1.00E-05	5.00E+02	upw_ks	1.00E+00	0.00E+00	1
ks_132	log	factor	0.000199147	1.00E-05	5.00E+02	upw_ks	1.00E+00	0.00E+00	1
ks_133	log	factor	0.000200923	1.00E-05	5.00E+02	upw_ks	1.00E+00	0.00E+00	1
ks_134	log	factor	0.026293051	1.00E-05	5.00E+02	upw_ks	1.00E+00	0.00E+00	1
ks_135	log	factor	0.000158639	1.00E-05	5.00E+02	upw_ks	1.00E+00	0.00E+00	1
ks_136	log	factor	0.000289612	1.00E-05	5.00E+02	upw_ks	1.00E+00	0.00E+00	1
ks_137	log	factor	0.004155373	1.00E-05	5.00E+02	upw_ks	1.00E+00	0.00E+00	1
ks_138	log	factor	6.436098778	1.00E-05	5.00E+02	upw_ks	1.00E+00	0.00E+00	1
ks_139	log	factor	0.000228796	1.00E-05	5.00E+02	upw_ks	1.00E+00	0.00E+00	1
ks_14	log	factor	4.529763011	1.00E-05	5.00E+02	upw_ks	1.00E+00	0.00E+00	1
ks_140	log	factor	14.44865234	1.00E-05	5.00E+02	upw_ks	1.00E+00	0.00E+00	1
ks_141	log	factor	0.000197762	1.00E-05	5.00E+02	upw_ks	1.00E+00	0.00E+00	1
ks_142	log	factor	0.000199828	1.00E-05	5.00E+02	upw_ks	1.00E+00	0.00E+00	1
ks_143	log	factor	0.001729638	1.00E-05	5.00E+02	upw_ks	1.00E+00	0.00E+00	1
ks_144	log	factor	1.009184179	1.00E-05	5.00E+02	upw_ks	1.00E+00	0.00E+00	1
ks_145	log	factor	29.39021279	1.00E-05	5.00E+02	upw_ks	1.00E+00	0.00E+00	1
ks_146	log	factor	5.729038567	1.00E-05	5.00E+02	upw_ks	1.00E+00	0.00E+00	1
ks_147	log	factor	4.048862374	1.00E-05	5.00E+02	upw_ks	1.00E+00	0.00E+00	1
ks_148	log	factor	5.966767126	1.00E-05	5.00E+02	upw_ks	1.00E+00	0.00E+00	1
ks_149	log	factor	0.000263947	1.00E-05	5.00E+02	upw_ks	1.00E+00	0.00E+00	1
ks_15	log	factor	2.713633296	1.00E-05	5.00E+02	upw_ks	1.00E+00	0.00E+00	1
ks_150	log	factor	7.235219863	1.00E-05	5.00E+02	upw_ks	1.00E+00	0.00E+00	1
ks_151	log	factor	6.007215763	1.00E-05	5.00E+02	upw_ks	1.00E+00	0.00E+00	1
ks_152	log	factor	0.098910234	1.00E-05	5.00E+02	upw_ks	1.00E+00	0.00E+00	1
ks_153	log	factor	38.32199957	1.00E-05	5.00E+02	upw_ks	1.00E+00	0.00E+00	1
ks_154	log	factor	56.23268358	1.00E-05	5.00E+02	upw_ks	1.00E+00	0.00E+00	1
ks_155	log	factor	0.000194703	1.00E-05	5.00E+02	upw_ks	1.00E+00	0.00E+00	1
ks_156	log	factor	0.185376898	1.00E-05	5.00E+02	upw_ks	1.00E+00	0.00E+00	1
ks_157	log	factor	0.197150481	1.00E-05	5.00E+02	upw_ks	1.00E+00	0.00E+00	1
ks_158	log	factor	0.626917812	1.00E-05	5.00E+02	upw_ks	1.00E+00	0.00E+00	1
ks_159	log	factor	0.026773205	1.00E-05	5.00E+02	upw_ks	1.00E+00	0.00E+00	1
ks_16	log	factor	490.589513	1.00E-05	5.00E+02	upw_ks	1.00E+00	0.00E+00	1
ks_160	log	factor	1.053513291	1.00E-05	5.00E+02	upw_ks	1.00E+00	0.00E+00	1
ks_161	log	factor	361.1655446	1.00E-05	5.00E+02	upw_ks	1.00E+00	0.00E+00	1
ks_162	log	factor	0.186619743	1.00E-05	5.00E+02	upw_ks	1.00E+00	0.00E+00	1
ks_163	log	factor	0.068698881	1.00E-05	5.00E+02	upw_ks	1.00E+00	0.00E+00	1
ks_164	log	factor	0.054501584	1.00E-05	5.00E+02	upw_ks	1.00E+00	0.00E+00	1
ks_165	log	factor	6.266443244	1.00E-05	5.00E+02	upw_ks	1.00E+00	0.00E+00	1
ks_166	log	factor	0.015654067	1.00E-05	5.00E+02	upw_ks	1.00E+00	0.00E+00	1
ks_167	log	factor	0.037451396	1.00E-05	5.00E+02	upw_ks	1.00E+00	0.00E+00	1
ks_168	log	factor	0.117265716	1.00E-05	5.00E+02	upw_ks	1.00E+00	0.00E+00	1
ks_169	log	factor	0.000262621	1.00E-05	5.00E+02	upw_ks	1.00E+00	0.00E+00	1
ks_17	log	factor	1.668308295	1.00E-05	5.00E+02	upw_ks	1.00E+00	0.00E+00	1
ks_170	log	factor	0.002014803	1.00E-05	5.00E+02	upw_ks	1.00E+00	0.00E+00	1
ks_171	log	factor	1.179573595	1.00E-05	5.00E+02	upw_ks	1.00E+00	0.00E+00	1
ks_172	log	factor	0.019652501	1.00E-05	5.00E+02	upw_ks	1.00E+00	0.00E+00	1
ks_173	log	factor	0.008017517	1.00E-05	5.00E+02	upw_ks	1.00E+00	0.00E+00	1
ks_174	log	factor	5.844825721	1.00E-05	5.00E+02	upw_ks	1.00E+00	0.00E+00	1
ks_175	log	factor	0.125177514	1.00E-05	5.00E+02	upw_ks	1.00E+00	0.00E+00	1
ks_176	log	factor	0.004491812	1.00E-05	5.00E+02	upw_ks	1.00E+00	0.00E+00	1
ks_177	log	factor	1.108742772	1.00E-05	5.00E+02	upw_ks	1.00E+00	0.00E+00	1
ks_178	log	factor	0.000200346	1.00E-05	5.00E+02	upw_ks	1.00E+00	0.00E+00	1
ks_179	log	factor	1.95439839	1.00E-05	5.00E+02	upw_ks	1.00E+00	0.00E+00	1
ks_18	log	factor	2.534434583	1.00E-05	5.00E+02	upw_ks	1.00E+00	0.00E+00	1
ks_180	log	factor	1.94E-05	1.00E-06	5.00E+02	upw_ks	1.00E+00	0.00E+00	1
ks_181	log	factor	0.029093052	1.00E-05	5.00E+02	upw_ks	1.00E+00	0.00E+00	1
ks_182	log	factor	4.860027932	1.00E-05	5.00E+02	upw_ks	1.00E+00	0.00E+00	1
ks_183	log	factor	0.962612231	1.00E-05	5.00E+02	upw_ks	1.00E+00	0.00E+00	1
ks_184	log	factor	0.000403891	1.00E-05	5.00E+02	upw_ks	1.00E+00	0.00E+00	1
ks_185	log	factor	9.55E-05	1.00E-06	5.00E+02	upw_ks	1.00E+00	0.00E+00	1
ks_186	log	factor	9.82E-05	1.00E-06	5.00E+02	upw_ks	1.00E+00	0.00E+00	1
ks_187	log	factor	0.000109297	1.00E-05	5.00E+02	upw_ks	1.00E+00	0.00E+00	1
ks_188	log	factor	0.000390822	1.00E-05	5.00E+02	upw_ks	1.00E+00	0.00E+00	1
ks_189	log	factor	0.000114793	1.00E-05	5.00E+02	upw_ks	1.00E+00	0.00E+00	1
ks_19	log	factor	44.71353109	1.00E-05	5.00E+02	upw_ks	1.00E+00	0.00E+00	1
ks_190	log	factor	1.00E-05	1.00E-06	5.00E+02	upw_ks	1.00E+00	0.00E+00	1
ks_191	log	factor	0.000100856	1.00E-05	5.00E+02	upw_ks	1.00E+00	0.00E+00	1
ks_192	log	factor	0.000128636	1.00E-05	5.00E+02	upw_ks	1.00E+00	0.00E+00	1
ks_193	log	factor	0.000203874	1.00E-05	5.00E+02	upw_ks	1.00E+00	0.00E+00	1
ks_194	log	factor	1.00E-05	1.00E-06	5.00E+02	upw_ks	1.00E+00	0.00E+00	1
ks_195	log	factor	0.000774146	1.00E-05	5.00E+02	upw_ks	1.00E+00	0.00E+00	1
ks_196	log	factor	1.00E-05	1.00E-06	5.00E+02	upw_ks	1.00E+00	0.00E+00	1
ks_197	log	factor	0.000131038	1.00E-05	5.00E+02	upw_ks	1.00E+00	0.00E+00	1
ks_198	log	factor	0.000169126	1.00E-05	5.00E+02	upw_ks	1.00E+00	0.00E+00	1
ks_199	log	factor	1.12E-05	1.00E-06	5.00E+02	upw_ks	1.00E+00	0.00E+00	1
ks_2	log	factor	0.029912808	1.00E-05	5.00E+02	upw_ks	1.00E+00	0.00E+00	1
ks_20	log	factor	0.375837936	1.00E-05	5.00E+02	upw_ks	1.00E+00	0.00E+00	1
ks_200	log	factor	1.02E-05	1.00E-06	5.00E+02	upw_ks	1.00E+00	0.00E+00	1
ks_201	log	factor	1.00E-05	1.00E-06	5.00E+02	upw_ks	1.00E+00	0.00E+00	1
ks_202	log	factor	0.000101427	1.00E-05	5.00E+02	upw_ks	1.00E+00	0.00E+00	1
ks_203	log	factor	0.000113691	1.00E-05	5.00E+02	upw_ks	1.00E+00	0.00E+00	1
ks_204	log	factor	9.87E-05	1.00E-06	5.00E+02	upw_ks	1.00E+00	0.00E+00	1
ks_205	log	factor	0.000103622	1.00E-05	5.00E+02	upw_ks	1.00E+00	0.00E+00	1
ks_206	log	factor	1.00E-05	1.00E-06	5.00E+02	upw_ks	1.00E+00	0.00E+00	1
ks_207	log	factor	0.00010176	1.00E-05	5.00E+02	upw_ks	1.00E+00	0.00E+00	1
ks_208	log	factor	1.38E-05	1.00E-06	5.00E+02	upw_ks	1.00E+00	0.00E+00	1
ks_209	log	factor	0.000294308	1.00E-05	5.00E+02	upw_ks	1.00E+00	0.00E+00	1
ks_21	log	factor	0.682548832	1.00E-05	5.00E+02	upw_ks	1.00E+00	0.00E+00	1
ks_210	log	factor	8.67E-05	1.00E-06	5.00E+02	upw_ks	1.00E+00	0.00E+00	1
ks_211	log	factor	8.81E-05	1.00E-06	5.00E+02	upw_ks	1.00E+00	0.00E+00	1
ks_212	log	factor	0.000102537	1.00E-05	5.00E+02	upw_ks	1.00E+00	0.00E+00	1
ks_213	log	factor	9.56E-05	1.00E-06	5.00E+02	upw_ks	1.00E+00	0.00E+00	1
ks_214	log	factor	9.91E-05	1.00E-06	5.00E+02	upw_ks	1.00E+00	0.00E+00	1
ks_215	log	factor	9.81E-05	1.00E-06	5.00E+02	upw_ks	1.00E+00	0.00E+00	1
ks_216	log	factor	0.000100252	1.00E-05	5.00E+02	upw_ks	1.00E+00	0.00E+00	1
ks_217	log	factor	9.42E-05	1.00E-06	5.00E+02	upw_ks	1.00E+00	0.00E+00	1
ks_218	log	factor	5.17E-05	1.00E-06	5.00E+02	upw_ks	1.00E+00	0.00E+00	1
ks_219	log	factor	0.000103808	1.00E-05	5.00E+02	upw_ks	1.00E+00	0.00E+00	1
ks_22	log	factor	0.462696594	1.00E-05	5.00E+02	upw_ks	1.00E+00	0.00E+00	1
ks_220	log	factor	9.22E-05	1.00E-06	5.00E+02	upw_ks	1.00E+00	0.00E+00	1
ks_221	log	factor	0.000133547	1.00E-05	5.00E+02	upw_ks	1.00E+00	0.00E+00	1
ks_222	log	factor	0.000108755	1.00E-05	5.00E+02	upw_ks	1.00E+00	0.00E+00	1
ks_223	log	factor	0.000115559	1.00E-05	5.00E+02	upw_ks	1.00E+00	0.00E+00	1
ks_224	log	factor	9.98E-05	1.00E-06	5.00E+02	upw_ks	1.00E+00	0.00E+00	1
ks_225	log	factor	1.01E-05	1.00E-06	5.00E+02	upw_ks	1.00E+00	0.00E+00	1
ks_226	log	factor	0.000105321	1.00E-05	5.00E+02	upw_ks	1.00E+00	0.00E+00	1
ks_227	log	factor	8.66E-05	1.00E-06	5.00E+02	upw_ks	1.00E+00	0.00E+00	1
ks_228	log	factor	8.75E-05	1.00E-06	5.00E+02	upw_ks	1.00E+00	0.00E+00	1
ks_229	log	factor	0.000424878	1.00E-05	5.00E+02	upw_ks	1.00E+00	0.00E+00	1
ks_23	log	factor	255.190628	1.00E-05	5.00E+02	upw_ks	1.00E+00	0.00E+00	1
ks_230	log	factor	1.04E-05	1.00E-06	5.00E+02	upw_ks	1.00E+00	0.00E+00	1
ks_231	log	factor	3.37E-05	1.00E-06	5.00E+02	upw_ks	1.00E+00	0.00E+00	1
ks_232	log	factor	0.000354181	1.00E-05	5.00E+02	upw_ks	1.00E+00	0.00E+00	1
ks_233	log	factor	6.06E-05	1.00E-06	5.00E+02	upw_ks	1.00E+00	0.00E+00	1
ks_24	log	factor	0.049045821	1.00E-05	5.00E+02	upw_ks	1.00E+00	0.00E+00	1
ks_25	log	factor	0.086913294	1.00E-05	5.00E+02	upw_ks	1.00E+00	0.00E+00	1
ks_26	log	factor	500	1.00E-05	5.00E+03	upw_ks	1.00E+00	0.00E+00	1
ks_27	log	factor	0.732426519	1.00E-05	5.00E+02	upw_ks	1.00E+00	0.00E+00	1
ks_28	log	factor	0.393534463	1.00E-05	5.00E+02	upw_ks	1.00E+00	0.00E+00	1
ks_29	log	factor	3.236529956	1.00E-05	5.00E+02	upw_ks	1.00E+00	0.00E+00	1
ks_3	log	factor	0.717546095	1.00E-05	5.00E+02	upw_ks	1.00E+00	0.00E+00	1
ks_30	log	factor	1.00E-05	1.00E-06	5.00E+02	upw_ks	1.00E+00	0.00E+00	1
ks_31	log	factor	2.63201124	1.00E-05	5.00E+02	upw_ks	1.00E+00	0.00E+00	1
ks_32	log	factor	0.000199649	1.00E-05	5.00E+02	upw_ks	1.00E+00	0.00E+00	1
ks_33	log	factor	0.098678664	1.00E-05	5.00E+02	upw_ks	1.00E+00	0.00E+00	1
ks_34	log	factor	50.20669158	1.00E-05	5.00E+02	upw_ks	1.00E+00	0.00E+00	1
ks_35	log	factor	0.000195505	1.00E-05	5.00E+02	upw_ks	1.00E+00	0.00E+00	1
ks_36	log	factor	0.000600179	1.00E-05	5.00E+02	upw_ks	1.00E+00	0.00E+00	1
ks_37	log	factor	0.000224563	1.00E-05	5.00E+02	upw_ks	1.00E+00	0.00E+00	1
ks_38	log	factor	0.220910251	1.00E-05	5.00E+02	upw_ks	1.00E+00	0.00E+00	1
ks_39	log	factor	0.000195719	1.00E-05	5.00E+02	upw_ks	1.00E+00	0.00E+00	1
ks_4	log	factor	8.813421055	1.00E-05	5.00E+02	upw_ks	1.00E+00	0.00E+00	1
ks_40	log	factor	0.652012237	1.00E-05	5.00E+02	upw_ks	1.00E+00	0.00E+00	1
ks_41	log	factor	1.142652931	1.00E-05	5.00E+02	upw_ks	1.00E+00	0.00E+00	1
ks_42	log	factor	2.262922093	1.00E-05	5.00E+02	upw_ks	1.00E+00	0.00E+00	1
ks_43	log	factor	0.269000257	1.00E-05	5.00E+02	upw_ks	1.00E+00	0.00E+00	1
ks_44	log	factor	0.500072308	1.00E-05	5.00E+02	upw_ks	1.00E+00	0.00E+00	1
ks_45	log	factor	0.016006933	1.00E-05	5.00E+02	upw_ks	1.00E+00	0.00E+00	1
ks_46	log	factor	1.525303344	1.00E-05	5.00E+02	upw_ks	1.00E+00	0.00E+00	1
ks_47	log	factor	5.61470879	1.00E-05	5.00E+02	upw_ks	1.00E+00	0.00E+00	1
ks_48	log	factor	9.052300858	1.00E-05	5.00E+02	upw_ks	1.00E+00	0.00E+00	1
ks_49	log	factor	0.000206658	1.00E-05	5.00E+02	upw_ks	1.00E+00	0.00E+00	1
ks_5	log	factor	48.183168	1.00E-05	5.00E+02	upw_ks	1.00E+00	0.00E+00	1
ks_50	log	factor	2.93595513	1.00E-05	5.00E+02	upw_ks	1.00E+00	0.00E+00	1
ks_51	log	factor	4.58E-05	1.00E-06	5.00E+02	upw_ks	1.00E+00	0.00E+00	1
ks_52	log	factor	0.003442626	1.00E-05	5.00E+02	upw_ks	1.00E+00	0.00E+00	1
ks_53	log	factor	4.93671421	1.00E-05	5.00E+02	upw_ks	1.00E+00	0.00E+00	1
ks_54	log	factor	0.017753418	1.00E-05	5.00E+02	upw_ks	1.00E+00	0.00E+00	1
ks_55	log	factor	19.81532262	1.00E-05	5.00E+02	upw_ks	1.00E+00	0.00E+00	1
ks_56	log	factor	72.73570775	1.00E-05	5.00E+02	upw_ks	1.00E+00	0.00E+00	1
ks_57	log	factor	5.460516749	1.00E-05	5.00E+02	upw_ks	1.00E+00	0.00E+00	1
ks_58	log	factor	0.309892098	1.00E-05	5.00E+02	upw_ks	1.00E+00	0.00E+00	1
ks_59	log	factor	0.006815165	1.00E-05	5.00E+02	upw_ks	1.00E+00	0.00E+00	1
ks_6	log	factor	221.64094	1.00E-05	5.00E+02	upw_ks	1.00E+00	0.00E+00	1
ks_60	log	factor	5.019495854	1.00E-05	5.00E+02	upw_ks	1.00E+00	0.00E+00	1
ks_61	log	factor	0.02854178	1.00E-05	5.00E+02	upw_ks	1.00E+00	0.00E+00	1
ks_62	log	factor	0.277704984	1.00E-05	5.00E+02	upw_ks	1.00E+00	0.00E+00	1
ks_63	log	factor	10.56851079	1.00E-05	5.00E+02	upw_ks	1.00E+00	0.00E+00	1
ks_64	log	factor	0.000613975	1.00E-05	5.00E+02	upw_ks	1.00E+00	0.00E+00	1
ks_65	log	factor	0.001874023	1.00E-05	5.00E+02	upw_ks	1.00E+00	0.00E+00	1
ks_66	log	factor	5.527088196	1.00E-05	5.00E+02	upw_ks	1.00E+00	0.00E+00	1
ks_67	log	factor	8.908029285	1.00E-05	5.00E+02	upw_ks	1.00E+00	0.00E+00	1
ks_68	log	factor	0.009230273	1.00E-05	5.00E+02	upw_ks	1.00E+00	0.00E+00	1
ks_69	log	factor	0.738007444	1.00E-05	5.00E+02	upw_ks	1.00E+00	0.00E+00	1
ks_7	log	factor	1.02E-05	1.00E-06	5.00E+02	upw_ks	1.00E+00	0.00E+00	1
ks_70	log	factor	3.769920064	1.00E-05	5.00E+02	upw_ks	1.00E+00	0.00E+00	1
ks_71	log	factor	1.00E-05	1.00E-06	5.00E+02	upw_ks	1.00E+00	0.00E+00	1
ks_72	log	factor	8.83E-05	1.00E-06	5.00E+02	upw_ks	1.00E+00	0.00E+00	1
ks_73	log	factor	0.000112722	1.00E-05	5.00E+02	upw_ks	1.00E+00	0.00E+00	1
ks_74	log	factor	9.32E-05	1.00E-06	5.00E+02	upw_ks	1.00E+00	0.00E+00	1
ks_75	log	factor	1.40E-05	1.00E-06	5.00E+02	upw_ks	1.00E+00	0.00E+00	1
ks_76	log	factor	0.000191976	1.00E-05	5.00E+02	upw_ks	1.00E+00	0.00E+00	1
ks_77	log	factor	0.000102201	1.00E-05	5.00E+02	upw_ks	1.00E+00	0.00E+00	1
ks_78	log	factor	1.62E-05	1.00E-06	5.00E+02	upw_ks	1.00E+00	0.00E+00	1
ks_79	log	factor	1.00E-05	1.00E-06	5.00E+02	upw_ks	1.00E+00	0.00E+00	1
ks_8	log	factor	1.00E-05	1.00E-06	5.00E+02	upw_ks	1.00E+00	0.00E+00	1
ks_80	log	factor	259.388155	1.00E-05	5.00E+02	upw_ks	1.00E+00	0.00E+00	1
ks_81	log	factor	9.01E-05	1.00E-06	5.00E+02	upw_ks	1.00E+00	0.00E+00	1
ks_82	log	factor	98.01698481	1.00E-05	5.00E+02	upw_ks	1.00E+00	0.00E+00	1
ks_83	log	factor	6.5633	1.00E-05	5.00E+02	upw_ks	1.00E+00	0.00E+00	1
ks_84	log	factor	9.02E-05	1.00E-06	5.00E+02	upw_ks	1.00E+00	0.00E+00	1
ks_85	log	factor	1.29E-05	1.00E-06	5.00E+02	upw_ks	1.00E+00	0.00E+00	1
ks_86	log	factor	0.000131559	1.00E-05	5.00E+02	upw_ks	1.00E+00	0.00E+00	1
ks_87	log	factor	499.967891	1.00E-05	5.00E+02	upw_ks	1.00E+00	0.00E+00	1
ks_88	log	factor	21.8836	1.00E-05	5.00E+02	upw_ks	1.00E+00	0.00E+00	1
ks_89	log	factor	7.98E-05	1.00E-05	5.00E+02	upw_ks	1.00E+00	0.00E+00	1
ks_9	log	factor	8.234483624	1.00E-05	5.00E+02	upw_ks	1.00E+00	0.00E+00	1
ks_90	log	factor	4.483889877	1.00E-05	5.00E+02	upw_ks	1.00E+00	0.00E+00	1
ks_91	log	factor	14.4669	1.00E-05	5.00E+02	upw_ks	1.00E+00	0.00E+00	1
ks_92	log	factor	0.000113981	1.00E-05	5.00E+02	upw_ks	1.00E+00	0.00E+00	1
ks_93	log	factor	0.04175079	1.00E-05	5.00E+02	upw_ks	1.00E+00	0.00E+00	1
ks_94	log	factor	3.04E-05	1.00E-06	5.00E+02	upw_ks	1.00E+00	0.00E+00	1
ks_95	log	factor	0.0001	1.00E-05	5.00E+02	upw_ks	1.00E+00	0.00E+00	1
ks_96	log	factor	0.000172895	1.00E-05	5.00E+02	upw_ks	1.00E+00	0.00E+00	1
ks_97	log	factor	5.52E-05	1.00E-06	5.00E+02	upw_ks	1.00E+00	0.00E+00	1
ks_98	log	factor	0.000114505	1.00E-05	5.00E+02	upw_ks	1.00E+00	0.00E+00	1
ks_99	log	factor	0.000106495	1.00E-05	5.00E+02	upw_ks	1.00E+00	0.00E+00	1
lak_cond_1	fixed	factor	1	1.10E-10	1.10E+10	lak_cd	1.00E+00	0.00E+00	1
lak_cond_12	log	factor	0.99447013	1.00E-01	1.00E+04	lak_cd	1.00E+00	0.00E+00	1
lak_cond_2	fixed	factor	1	1.10E-10	1.10E+10	lak_cd	1.00E+00	0.00E+00	1
pet_1	fixed	factor	9.50E-05	1.10E-10	1.10E+10	uzf_pet	1.00E+00	0.00E+00	1
pond_recharge	log	factor	14271.55421	1.00E+00	1.00E+05	well_rubber_dam	1.00E+00	0.00E+00	1
sfr_k_1	log	factor	0.117803361	1.00E-05	5.00E+02	sfr_ks	1.00E+00	0.00E+00	1
sfr_k_10	log	factor	0.100924976	1.00E-05	5.00E+02	sfr_ks	1.00E+00	0.00E+00	1
sfr_k_11	log	factor	0.099945585	1.00E-05	5.00E+02	sfr_ks	1.00E+00	0.00E+00	1
sfr_k_12	log	factor	0.10198	1.00E-05	5.00E+02	sfr_ks	1.00E+00	0.00E+00	1
sfr_k_13	log	factor	0.100005204	1.00E-05	5.00E+02	sfr_ks	1.00E+00	0.00E+00	1
sfr_k_14	log	factor	0.100625362	1.00E-05	5.00E+02	sfr_ks	1.00E+00	0.00E+00	1
sfr_k_15	log	factor	0.100168624	1.00E-05	5.00E+02	sfr_ks	1.00E+00	0.00E+00	1
sfr_k_16	log	factor	0.105333604	1.00E-05	5.00E+02	sfr_ks	1.00E+00	0.00E+00	1
sfr_k_17	log	factor	0.100497859	1.00E-05	5.00E+02	sfr_ks	1.00E+00	0.00E+00	1
sfr_k_18	log	factor	0.152933628	1.00E-05	5.00E+02	sfr_ks	1.00E+00	0.00E+00	1
sfr_k_19	log	factor	0.100048014	1.00E-05	5.00E+02	sfr_ks	1.00E+00	0.00E+00	1
sfr_k_2	log	factor	0.099715713	1.00E-05	5.00E+02	sfr_ks	1.00E+00	0.00E+00	1
sfr_k_20	log	factor	0.100201992	1.00E-05	5.00E+02	sfr_ks	1.00E+00	0.00E+00	1
sfr_k_21	log	factor	0.100057154	1.00E-05	5.00E+02	sfr_ks	1.00E+00	0.00E+00	1
sfr_k_22	log	factor	0.107340811	1.00E-05	5.00E+02	sfr_ks	1.00E+00	0.00E+00	1
sfr_k_3	log	factor	0.094154131	1.00E-05	5.00E+02	sfr_ks	1.00E+00	0.00E+00	1
sfr_k_4	log	factor	0.097674113	1.00E-05	5.00E+02	sfr_ks	1.00E+00	0.00E+00	1
sfr_k_5	log	factor	0.111876056	1.00E-05	5.00E+02	sfr_ks	1.00E+00	0.00E+00	1
sfr_k_6	log	factor	0.100901581	1.00E-05	5.00E+02	sfr_ks	1.00E+00	0.00E+00	1
sfr_k_7	log	factor	0.100922989	1.00E-05	5.00E+02	sfr_ks	1.00E+00	0.00E+00	1
sfr_k_8	log	factor	0.101893128	1.00E-05	5.00E+02	sfr_ks	1.00E+00	0.00E+00	1
sfr_k_9	log	factor	0.104756286	1.00E-05	5.00E+02	sfr_ks	1.00E+00	0.00E+00	1
spill_447	fixed	factor	185.0599976	1.00E+02	2.20E+02	sfr_spil	1.00E+00	0.00E+00	1
spill_449	fixed	factor	146.6000061	1.00E+02	2.20E+02	sfr_spil	1.00E+00	0.00E+00	1
spill_688	none	factor	8.23013	8.23E+00	1.16E+01	sfr_spil	1.00E+00	0.00E+00	1
surfk_1_1	log	factor	0.00025026	1.00E-10	5.00E+02	uzf_surfk	1.00E+00	0.00E+00	1
surfk_1_10	log	factor	0.000251249	1.00E-10	5.00E+02	uzf_surfk	1.00E+00	0.00E+00	1
surfk_1_11	log	factor	0.000251105	1.00E-10	5.00E+02	uzf_surfk	1.00E+00	0.00E+00	1
surfk_1_12	log	factor	0.00025102	1.00E-10	5.00E+02	uzf_surfk	1.00E+00	0.00E+00	1
surfk_1_13	log	factor	0.000251093	1.00E-10	5.00E+02	uzf_surfk	1.00E+00	0.00E+00	1
surfk_1_14	log	factor	0.00025106	1.00E-10	5.00E+02	uzf_surfk	1.00E+00	0.00E+00	1
surfk_1_15	log	factor	0.000250123	1.00E-10	5.00E+02	uzf_surfk	1.00E+00	0.00E+00	1
surfk_1_16	log	factor	0.00024996	1.00E-10	5.00E+02	uzf_surfk	1.00E+00	0.00E+00	1
surfk_1_17	log	factor	0.000251119	1.00E-10	5.00E+02	uzf_surfk	1.00E+00	0.00E+00	1
surfk_1_18	log	factor	0.000250292	1.00E-10	5.00E+02	uzf_surfk	1.00E+00	0.00E+00	1
surfk_1_19	log	factor	0.000251117	1.00E-10	5.00E+02	uzf_surfk	1.00E+00	0.00E+00	1
surfk_1_2	log	factor	0.00025009	1.00E-10	5.00E+02	uzf_surfk	1.00E+00	0.00E+00	1
surfk_1_21	log	factor	0.00025097	1.00E-10	5.00E+02	uzf_surfk	1.00E+00	0.00E+00	1
surfk_1_3	log	factor	0.000251105	1.00E-10	5.00E+02	uzf_surfk	1.00E+00	0.00E+00	1
surfk_1_4	log	factor	0.000396478	1.00E-10	5.00E+02	uzf_surfk	1.00E+00	0.00E+00	1
surfk_1_5	log	factor	0.000395326	1.00E-10	5.00E+02	uzf_surfk	1.00E+00	0.00E+00	1
surfk_1_6	log	factor	0.000249992	1.00E-10	5.00E+02	uzf_surfk	1.00E+00	0.00E+00	1
surfk_1_8	log	factor	0.000249719	1.00E-10	5.00E+02	uzf_surfk	1.00E+00	0.00E+00	1
surfk_1_9	log	factor	0.000250053	1.00E-10	5.00E+02	uzf_surfk	1.00E+00	0.00E+00	1
surfk_2_1	log	factor	0.000251045	1.00E-10	5.00E+02	uzf_surfk	1.00E+00	0.00E+00	1
surfk_2_10	log	factor	0.000251138	1.00E-10	5.00E+02	uzf_surfk	1.00E+00	0.00E+00	1
surfk_2_11	log	factor	0.000251073	1.00E-10	5.00E+02	uzf_surfk	1.00E+00	0.00E+00	1
surfk_2_12	log	factor	0.000250091	1.00E-10	5.00E+02	uzf_surfk	1.00E+00	0.00E+00	1
surfk_2_14	log	factor	0.000158411	1.00E-10	5.00E+02	uzf_surfk	1.00E+00	0.00E+00	1
surfk_2_15	log	factor	0.000162931	1.00E-10	5.00E+02	uzf_surfk	1.00E+00	0.00E+00	1
surfk_2_16	log	factor	0.000158412	1.00E-10	5.00E+02	uzf_surfk	1.00E+00	0.00E+00	1
surfk_2_17	log	factor	0.000158422	1.00E-10	5.00E+02	uzf_surfk	1.00E+00	0.00E+00	1
surfk_2_18	log	factor	0.000156058	1.00E-10	5.00E+02	uzf_surfk	1.00E+00	0.00E+00	1
surfk_2_19	log	factor	0.000158402	1.00E-10	5.00E+02	uzf_surfk	1.00E+00	0.00E+00	1
surfk_2_2	log	factor	9.96E-05	1.00E-10	5.00E+02	uzf_surfk	1.00E+00	0.00E+00	1
surfk_2_20	log	factor	0.000630193	1.00E-10	5.00E+02	uzf_surfk	1.00E+00	0.00E+00	1
surfk_2_21	log	factor	0.000158412	1.00E-10	5.00E+02	uzf_surfk	1.00E+00	0.00E+00	1
surfk_2_22	log	factor	0.000158482	1.00E-10	5.00E+02	uzf_surfk	1.00E+00	0.00E+00	1
surfk_2_3	log	factor	9.99E-05	1.00E-10	5.00E+02	uzf_surfk	1.00E+00	0.00E+00	1
surfk_2_4	log	factor	0.000249986	1.00E-10	5.00E+02	uzf_surfk	1.00E+00	0.00E+00	1
surfk_2_5	log	factor	0.000252001	1.00E-10	5.00E+02	uzf_surfk	1.00E+00	0.00E+00	1
surfk_2_6	log	factor	0.000157715	1.00E-10	5.00E+02	uzf_surfk	1.00E+00	0.00E+00	1
surfk_2_7	log	factor	0.000251102	1.00E-10	5.00E+02	uzf_surfk	1.00E+00	0.00E+00	1
surfk_2_8	log	factor	0.000251111	1.00E-10	5.00E+02	uzf_surfk	1.00E+00	0.00E+00	1
surfk_2_9	log	factor	0.000249941	1.00E-10	5.00E+02	uzf_surfk	1.00E+00	0.00E+00	1
surfk_3_1	log	factor	3.00E-08	1.00E-10	5.00E+02	uzf_surfk	1.00E+00	0.00E+00	1
surfk_3_10	log	factor	3.09E-08	1.00E-10	5.00E+02	uzf_surfk	1.00E+00	0.00E+00	1
surfk_3_11	log	factor	3.09E-08	1.00E-10	5.00E+02	uzf_surfk	1.00E+00	0.00E+00	1
surfk_3_12	log	factor	3.09E-08	1.00E-10	5.00E+02	uzf_surfk	1.00E+00	0.00E+00	1
surfk_3_13	log	factor	3.09E-08	1.00E-10	5.00E+02	uzf_surfk	1.00E+00	0.00E+00	1
surfk_3_14	log	factor	3.18E-08	1.00E-10	5.00E+02	uzf_surfk	1.00E+00	0.00E+00	1
surfk_3_15	log	factor	3.07E-08	1.00E-10	5.00E+02	uzf_surfk	1.00E+00	0.00E+00	1
surfk_3_16	log	factor	9.99E-08	1.00E-10	5.00E+02	uzf_surfk	1.00E+00	0.00E+00	1
surfk_3_17	log	factor	3.09E-08	1.00E-10	5.00E+02	uzf_surfk	1.00E+00	0.00E+00	1
surfk_3_18	log	factor	3.09E-08	1.00E-10	5.00E+02	uzf_surfk	1.00E+00	0.00E+00	1
surfk_3_19	log	factor	3.09E-08	1.00E-10	5.00E+02	uzf_surfk	1.00E+00	0.00E+00	1
surfk_3_2	log	factor	3.07E-08	1.00E-10	5.00E+02	uzf_surfk	1.00E+00	0.00E+00	1
surfk_3_20	log	factor	1.15E-07	1.00E-10	5.00E+02	uzf_surfk	1.00E+00	0.00E+00	1
surfk_3_21	log	factor	3.09E-08	1.00E-10	5.00E+02	uzf_surfk	1.00E+00	0.00E+00	1
surfk_3_22	log	factor	3.08E-08	1.00E-10	5.00E+02	uzf_surfk	1.00E+00	0.00E+00	1
surfk_3_3	log	factor	3.07E-08	1.00E-10	5.00E+02	uzf_surfk	1.00E+00	0.00E+00	1
surfk_3_4	log	factor	3.07E-08	1.00E-10	5.00E+02	uzf_surfk	1.00E+00	0.00E+00	1
surfk_3_5	log	factor	3.09E-08	1.00E-10	5.00E+02	uzf_surfk	1.00E+00	0.00E+00	1
surfk_3_6	log	factor	9.98E-08	1.00E-10	5.00E+02	uzf_surfk	1.00E+00	0.00E+00	1
surfk_3_7	log	factor	3.07E-08	1.00E-10	5.00E+02	uzf_surfk	1.00E+00	0.00E+00	1
surfk_3_8	log	factor	3.09E-08	1.00E-10	5.00E+02	uzf_surfk	1.00E+00	0.00E+00	1
surfk_3_9	log	factor	3.09E-08	1.00E-10	5.00E+02	uzf_surfk	1.00E+00	0.00E+00	1
vka_ratio_1	none	factor	0.098957079	1.10E-10	1.10E+10	upw_vka	1.00E+00	0.00E+00	1
vka_ratio_2	none	factor	0.100663059	1.10E-10	1.10E+10	upw_vka	1.00E+00	0.00E+00	1
vka_ratio_3	none	factor	0.099995886	1.10E-10	1.10E+10	upw_vka	1.00E+00	0.00E+00	1
vks_1_1	fixed	factor	0.000251189	1.00E-10	5.00E+02	uzf_vks	1.00E+00	0.00E+00	1
vks_1_10	fixed	factor	0.000251189	1.00E-10	5.00E+02	uzf_vks	1.00E+00	0.00E+00	1
vks_1_11	fixed	factor	0.000251189	1.00E-10	5.00E+02	uzf_vks	1.00E+00	0.00E+00	1
vks_1_12	fixed	factor	0.000251189	1.00E-10	5.00E+02	uzf_vks	1.00E+00	0.00E+00	1
vks_1_13	fixed	factor	0.000251189	1.00E-10	5.00E+02	uzf_vks	1.00E+00	0.00E+00	1
vks_1_14	fixed	factor	0.000251189	1.00E-10	5.00E+02	uzf_vks	1.00E+00	0.00E+00	1
vks_1_15	fixed	factor	0.000251189	1.00E-10	5.00E+02	uzf_vks	1.00E+00	0.00E+00	1
vks_1_16	fixed	factor	0.000251189	1.00E-10	5.00E+02	uzf_vks	1.00E+00	0.00E+00	1
vks_1_17	fixed	factor	0.000251189	1.00E-10	5.00E+02	uzf_vks	1.00E+00	0.00E+00	1
vks_1_18	fixed	factor	0.000251189	1.00E-10	5.00E+02	uzf_vks	1.00E+00	0.00E+00	1
vks_1_19	fixed	factor	0.000251189	1.00E-10	5.00E+02	uzf_vks	1.00E+00	0.00E+00	1
vks_1_2	fixed	factor	0.000251189	1.00E-10	5.00E+02	uzf_vks	1.00E+00	0.00E+00	1