pcf
* control data
             restart          estimation
       411       212         9         0         4
         1         1              single               point
   2.000000E+01  -3.000000E+00   3.000000E-01   1.000000E-02        -7
   1.000000E+01   1.000000E+01   1.000000E-03
   1.000000E-01
        30   1.000000E-02         3         3   1.000000E-02         3
         0         0         0
* singular value decomposition
         1
  10000000    1.000000E-06
1
* parameter groups
upw_ks                 relative              1.0000000000E-02      0.0 switch                2.0000000000E+00      parabolic             1.0000000000E-05      5.0000000000E-01      smaller              
uzf_vks                relative              1.0000000000E-02      0.0 switch                2.0000000000E+00      parabolic             1.0000000000E-05      5.0000000000E-01      smaller              
uzf_surfk              relative              1.0000000000E-02      0.0 switch                2.0000000000E+00      parabolic             1.0000000000E-05      5.0000000000E-01      smaller              
uzf_finf               relative              1.0000000000E-02      0.0 switch                2.0000000000E+00      parabolic             1.0000000000E-05      5.0000000000E-01      smaller              
sfr_ks                 relative              1.0000000000E-02      0.0 switch                2.0000000000E+00      parabolic             1.0000000000E-05      5.0000000000E-01      smaller              
sfr_spil               relative              1.0000000000E-02      0.0 switch                2.0000000000E+00      parabolic             1.0000000000E-05      5.0000000000E-01      smaller              
upw_vka                relative              1.0000000000E-02      0.0 switch                2.0000000000E+00      parabolic             1.0000000000E-05      5.0000000000E-01      smaller              
lak_cd                 relative              1.0000000000E-02      0.0 switch                2.0000000000E+00      parabolic             1.0000000000E-05      5.0000000000E-01      smaller              
uzf_pet                relative              1.0000000000E-02      0.0 switch                2.0000000000E+00      parabolic             1.0000000000E-05      5.0000000000E-01      smaller              
* parameter data
finf_1                none                  factor                4.8303497900E-01      1.0000000000E-02      1.0000000000E+00      uzf_finf              1.0000000000E+00      0.0000000000E+00      1          
finf_10               none                  factor                4.7249398500E-01      1.0000000000E-02      1.0000000000E+00      uzf_finf              1.0000000000E+00      0.0000000000E+00      1          
finf_11               none                  factor                4.7251559500E-01      1.0000000000E-02      1.0000000000E+00      uzf_finf              1.0000000000E+00      0.0000000000E+00      1          
finf_12               none                  factor                4.7254297800E-01      1.0000000000E-02      1.0000000000E+00      uzf_finf              1.0000000000E+00      0.0000000000E+00      1          
finf_13               none                  factor                4.7250613600E-01      1.0000000000E-02      1.0000000000E+00      uzf_finf              1.0000000000E+00      0.0000000000E+00      1          
finf_14               none                  factor                4.8294441500E-01      1.0000000000E-02      1.0000000000E+00      uzf_finf              1.0000000000E+00      0.0000000000E+00      1          
finf_15               none                  factor                4.8267241300E-01      1.0000000000E-02      1.0000000000E+00      uzf_finf              1.0000000000E+00      0.0000000000E+00      1          
finf_16               none                  factor                4.8299822500E-01      1.0000000000E-02      1.0000000000E+00      uzf_finf              1.0000000000E+00      0.0000000000E+00      1          
finf_17               none                  factor                4.8322198200E-01      1.0000000000E-02      1.0000000000E+00      uzf_finf              1.0000000000E+00      0.0000000000E+00      1          
finf_18               none                  factor                4.8328374100E-01      1.0000000000E-02      1.0000000000E+00      uzf_finf              1.0000000000E+00      0.0000000000E+00      1          
finf_19               none                  factor                4.8303519600E-01      1.0000000000E-02      1.0000000000E+00      uzf_finf              1.0000000000E+00      0.0000000000E+00      1          
finf_2                none                  factor                4.8295259800E-01      1.0000000000E-02      1.0000000000E+00      uzf_finf              1.0000000000E+00      0.0000000000E+00      1          
finf_20               none                  factor                5.2846188800E-01      1.0000000000E-02      1.0000000000E+00      uzf_finf              1.0000000000E+00      0.0000000000E+00      1          
finf_21               none                  factor                4.8313750100E-01      1.0000000000E-02      1.0000000000E+00      uzf_finf              1.0000000000E+00      0.0000000000E+00      1          
finf_22               none                  factor                4.8280349100E-01      1.0000000000E-02      1.0000000000E+00      uzf_finf              1.0000000000E+00      0.0000000000E+00      1          
finf_3                none                  factor                4.8299456800E-01      1.0000000000E-02      1.0000000000E+00      uzf_finf              1.0000000000E+00      0.0000000000E+00      1          
finf_4                none                  factor                4.1051749100E-01      1.0000000000E-02      1.0000000000E+00      uzf_finf              1.0000000000E+00      0.0000000000E+00      1          
finf_5                none                  factor                4.1055179800E-01      1.0000000000E-02      1.0000000000E+00      uzf_finf              1.0000000000E+00      0.0000000000E+00      1          
finf_6                none                  factor                4.8302349200E-01      1.0000000000E-02      1.0000000000E+00      uzf_finf              1.0000000000E+00      0.0000000000E+00      1          
finf_7                none                  factor                4.7250582800E-01      1.0000000000E-02      1.0000000000E+00      uzf_finf              1.0000000000E+00      0.0000000000E+00      1          
finf_8                none                  factor                4.7251173300E-01      1.0000000000E-02      1.0000000000E+00      uzf_finf              1.0000000000E+00      0.0000000000E+00      1          
finf_9                none                  factor                4.7259809500E-01      1.0000000000E-02      1.0000000000E+00      uzf_finf              1.0000000000E+00      0.0000000000E+00      1          
ks_1                  log                   factor                1.0181006790E+00      1.0000000000E-05      5.0000000000E+02      upw_ks                1.0000000000E+00      0.0000000000E+00      1          
ks_10                 log                   factor                1.7665358470E+00      1.0000000000E-05      5.0000000000E+02      upw_ks                1.0000000000E+00      0.0000000000E+00      1          
ks_100                log                   factor                1.0000000000E-05      1.0000000000E-05      5.0000000000E+02      upw_ks                1.0000000000E+00      0.0000000000E+00      1          
ks_101                log                   factor                8.4329500000E-04      1.0000000000E-05      5.0000000000E+02      upw_ks                1.0000000000E+00      0.0000000000E+00      1          
ks_102                log                   factor                7.9700000000E-05      1.0000000000E-05      5.0000000000E+02      upw_ks                1.0000000000E+00      0.0000000000E+00      1          
ks_103                log                   factor                4.3760700000E-04      1.0000000000E-05      5.0000000000E+02      upw_ks                1.0000000000E+00      0.0000000000E+00      1          
ks_104                log                   factor                1.0000000000E-05      1.0000000000E-05      5.0000000000E+02      upw_ks                1.0000000000E+00      0.0000000000E+00      1          
ks_105                log                   factor                1.0100000000E-05      1.0000000000E-05      5.0000000000E+02      upw_ks                1.0000000000E+00      0.0000000000E+00      1          
ks_106                log                   factor                1.4513300000E-04      1.0000000000E-05      5.0000000000E+02      upw_ks                1.0000000000E+00      0.0000000000E+00      1          
ks_107                log                   factor                3.1329600000E-04      1.0000000000E-05      5.0000000000E+02      upw_ks                1.0000000000E+00      0.0000000000E+00      1          
ks_108                log                   factor                4.3405011340E+00      1.0000000000E-05      5.0000000000E+02      upw_ks                1.0000000000E+00      0.0000000000E+00      1          
ks_109                log                   factor                6.8869908670E+00      1.0000000000E-05      5.0000000000E+02      upw_ks                1.0000000000E+00      0.0000000000E+00      1          
ks_11                 log                   factor                3.2311309700E-01      1.0000000000E-05      5.0000000000E+02      upw_ks                1.0000000000E+00      0.0000000000E+00      1          
ks_110                log                   factor                3.9316773410E+00      1.0000000000E-05      5.0000000000E+02      upw_ks                1.0000000000E+00      0.0000000000E+00      1          
ks_111                log                   factor                4.8489536000E+00      1.0000000000E-05      5.0000000000E+02      upw_ks                1.0000000000E+00      0.0000000000E+00      1          
ks_112                log                   factor                3.1347050540E+00      1.0000000000E-05      5.0000000000E+02      upw_ks                1.0000000000E+00      0.0000000000E+00      1          
ks_113                log                   factor                1.0637407900E+00      1.0000000000E-05      5.0000000000E+02      upw_ks                1.0000000000E+00      0.0000000000E+00      1          
ks_114                log                   factor                7.7580874000E+00      1.0000000000E-05      5.0000000000E+02      upw_ks                1.0000000000E+00      0.0000000000E+00      1          
ks_115                log                   factor                6.4253133280E+00      1.0000000000E-05      5.0000000000E+02      upw_ks                1.0000000000E+00      0.0000000000E+00      1          
ks_116                log                   factor                3.9886781900E-01      1.0000000000E-05      5.0000000000E+02      upw_ks                1.0000000000E+00      0.0000000000E+00      1          
ks_117                log                   factor                1.3410223830E+01      1.0000000000E-05      5.0000000000E+02      upw_ks                1.0000000000E+00      0.0000000000E+00      1          
ks_118                log                   factor                2.0380510120E+00      1.0000000000E-05      5.0000000000E+02      upw_ks                1.0000000000E+00      0.0000000000E+00      1          
ks_119                log                   factor                1.0459409250E+01      1.0000000000E-05      5.0000000000E+02      upw_ks                1.0000000000E+00      0.0000000000E+00      1          
ks_12                 log                   factor                8.9508023530E+00      1.0000000000E-05      5.0000000000E+02      upw_ks                1.0000000000E+00      0.0000000000E+00      1          
ks_120                log                   factor                1.5997453100E-01      1.0000000000E-05      5.0000000000E+02      upw_ks                1.0000000000E+00      0.0000000000E+00      1          
ks_121                log                   factor                2.1470376050E+00      1.0000000000E-05      5.0000000000E+02      upw_ks                1.0000000000E+00      0.0000000000E+00      1          
ks_122                log                   factor                3.8489241370E+01      1.0000000000E-05      5.0000000000E+02      upw_ks                1.0000000000E+00      0.0000000000E+00      1          
ks_123                log                   factor                1.1213590420E+01      1.0000000000E-05      5.0000000000E+02      upw_ks                1.0000000000E+00      0.0000000000E+00      1          
ks_124                log                   factor                2.0097620250E+00      1.0000000000E-05      5.0000000000E+02      upw_ks                1.0000000000E+00      0.0000000000E+00      1          
ks_125                log                   factor                5.0000000000E+02      1.0000000000E-05      5.0000000000E+02      upw_ks                1.0000000000E+00      0.0000000000E+00      1          
ks_126                log                   factor                4.9996976550E+02      1.0000000000E-05      5.0000000000E+02      upw_ks                1.0000000000E+00      0.0000000000E+00      1          
ks_127                log                   factor                1.9531095010E+00      1.0000000000E-05      5.0000000000E+02      upw_ks                1.0000000000E+00      0.0000000000E+00      1          
ks_128                log                   factor                3.3628346560E+00      1.0000000000E-05      5.0000000000E+02      upw_ks                1.0000000000E+00      0.0000000000E+00      1          
ks_129                log                   factor                5.9950685120E+00      1.0000000000E-05      5.0000000000E+02      upw_ks                1.0000000000E+00      0.0000000000E+00      1          
ks_13                 log                   factor                1.7388508290E+00      1.0000000000E-05      5.0000000000E+02      upw_ks                1.0000000000E+00      0.0000000000E+00      1          
ks_130                log                   factor                1.4317789550E+01      1.0000000000E-05      5.0000000000E+02      upw_ks                1.0000000000E+00      0.0000000000E+00      1          
ks_131                log                   factor                2.0119400000E-04      1.0000000000E-05      5.0000000000E+02      upw_ks                1.0000000000E+00      0.0000000000E+00      1          
ks_132                log                   factor                2.0018000000E-04      1.0000000000E-05      5.0000000000E+02      upw_ks                1.0000000000E+00      0.0000000000E+00      1          
ks_133                log                   factor                2.0199300000E-04      1.0000000000E-05      5.0000000000E+02      upw_ks                1.0000000000E+00      0.0000000000E+00      1          
ks_134                log                   factor                2.6291212000E-02      1.0000000000E-05      5.0000000000E+02      upw_ks                1.0000000000E+00      0.0000000000E+00      1          
ks_135                log                   factor                1.5870800000E-04      1.0000000000E-05      5.0000000000E+02      upw_ks                1.0000000000E+00      0.0000000000E+00      1          
ks_136                log                   factor                2.9100200000E-04      1.0000000000E-05      5.0000000000E+02      upw_ks                1.0000000000E+00      0.0000000000E+00      1          
ks_137                log                   factor                4.1906700000E-03      1.0000000000E-05      5.0000000000E+02      upw_ks                1.0000000000E+00      0.0000000000E+00      1          
ks_138                log                   factor                6.3114787000E+00      1.0000000000E-05      5.0000000000E+02      upw_ks                1.0000000000E+00      0.0000000000E+00      1          
ks_139                log                   factor                2.2886200000E-04      1.0000000000E-05      5.0000000000E+02      upw_ks                1.0000000000E+00      0.0000000000E+00      1          
ks_14                 log                   factor                4.5410658960E+00      1.0000000000E-05      5.0000000000E+02      upw_ks                1.0000000000E+00      0.0000000000E+00      1          
ks_140                log                   factor                1.4530574030E+01      1.0000000000E-05      5.0000000000E+02      upw_ks                1.0000000000E+00      0.0000000000E+00      1          
ks_141                log                   factor                1.9782700000E-04      1.0000000000E-05      5.0000000000E+02      upw_ks                1.0000000000E+00      0.0000000000E+00      1          
ks_142                log                   factor                1.9989300000E-04      1.0000000000E-05      5.0000000000E+02      upw_ks                1.0000000000E+00      0.0000000000E+00      1          
ks_143                log                   factor                1.7434180000E-03      1.0000000000E-05      5.0000000000E+02      upw_ks                1.0000000000E+00      0.0000000000E+00      1          
ks_144                log                   factor                1.0098559280E+00      1.0000000000E-05      5.0000000000E+02      upw_ks                1.0000000000E+00      0.0000000000E+00      1          
ks_145                log                   factor                2.9037464590E+01      1.0000000000E-05      5.0000000000E+02      upw_ks                1.0000000000E+00      0.0000000000E+00      1          
ks_146                log                   factor                5.7339202800E+00      1.0000000000E-05      5.0000000000E+02      upw_ks                1.0000000000E+00      0.0000000000E+00      1          
ks_147                log                   factor                4.0624461940E+00      1.0000000000E-05      5.0000000000E+02      upw_ks                1.0000000000E+00      0.0000000000E+00      1          
ks_148                log                   factor                5.9969882000E+00      1.0000000000E-05      5.0000000000E+02      upw_ks                1.0000000000E+00      0.0000000000E+00      1          
ks_149                log                   factor                2.6408200000E-04      1.0000000000E-05      5.0000000000E+02      upw_ks                1.0000000000E+00      0.0000000000E+00      1          
ks_15                 log                   factor                2.7216576460E+00      1.0000000000E-05      5.0000000000E+02      upw_ks                1.0000000000E+00      0.0000000000E+00      1          
ks_150                log                   factor                7.2321945250E+00      1.0000000000E-05      5.0000000000E+02      upw_ks                1.0000000000E+00      0.0000000000E+00      1          
ks_151                log                   factor                6.0058850950E+00      1.0000000000E-05      5.0000000000E+02      upw_ks                1.0000000000E+00      0.0000000000E+00      1          
ks_152                log                   factor                9.7557953000E-02      1.0000000000E-05      5.0000000000E+02      upw_ks                1.0000000000E+00      0.0000000000E+00      1          
ks_153                log                   factor                3.7129198010E+01      1.0000000000E-05      5.0000000000E+02      upw_ks                1.0000000000E+00      0.0000000000E+00      1          
ks_154                log                   factor                5.6554385160E+01      1.0000000000E-05      5.0000000000E+02      upw_ks                1.0000000000E+00      0.0000000000E+00      1          
ks_155                log                   factor                1.9601100000E-04      1.0000000000E-05      5.0000000000E+02      upw_ks                1.0000000000E+00      0.0000000000E+00      1          
ks_156                log                   factor                1.8502145700E-01      1.0000000000E-05      5.0000000000E+02      upw_ks                1.0000000000E+00      0.0000000000E+00      1          
ks_157                log                   factor                1.9097496000E-01      1.0000000000E-05      5.0000000000E+02      upw_ks                1.0000000000E+00      0.0000000000E+00      1          
ks_158                log                   factor                6.2490832900E-01      1.0000000000E-05      5.0000000000E+02      upw_ks                1.0000000000E+00      0.0000000000E+00      1          
ks_159                log                   factor                2.6778667000E-02      1.0000000000E-05      5.0000000000E+02      upw_ks                1.0000000000E+00      0.0000000000E+00      1          
ks_16                 log                   factor                4.9999099700E+02      1.0000000000E-05      5.0000000000E+02      upw_ks                1.0000000000E+00      0.0000000000E+00      1          
ks_160                log                   factor                1.0308675430E+00      1.0000000000E-05      5.0000000000E+02      upw_ks                1.0000000000E+00      0.0000000000E+00      1          
ks_161                log                   factor                2.8050965950E+02      1.0000000000E-05      5.0000000000E+02      upw_ks                1.0000000000E+00      0.0000000000E+00      1          
ks_162                log                   factor                1.8666315800E-01      1.0000000000E-05      5.0000000000E+02      upw_ks                1.0000000000E+00      0.0000000000E+00      1          
ks_163                log                   factor                6.8794881000E-02      1.0000000000E-05      5.0000000000E+02      upw_ks                1.0000000000E+00      0.0000000000E+00      1          
ks_164                log                   factor                5.4530242000E-02      1.0000000000E-05      5.0000000000E+02      upw_ks                1.0000000000E+00      0.0000000000E+00      1          
ks_165                log                   factor                6.2128542500E+00      1.0000000000E-05      5.0000000000E+02      upw_ks                1.0000000000E+00      0.0000000000E+00      1          
ks_166                log                   factor                1.5647775000E-02      1.0000000000E-05      5.0000000000E+02      upw_ks                1.0000000000E+00      0.0000000000E+00      1          
ks_167                log                   factor                3.7982604000E-02      1.0000000000E-05      5.0000000000E+02      upw_ks                1.0000000000E+00      0.0000000000E+00      1          
ks_168                log                   factor                1.2535355500E-01      1.0000000000E-05      5.0000000000E+02      upw_ks                1.0000000000E+00      0.0000000000E+00      1          
ks_169                log                   factor                2.6337800000E-04      1.0000000000E-05      5.0000000000E+02      upw_ks                1.0000000000E+00      0.0000000000E+00      1          
ks_17                 log                   factor                1.6702855760E+00      1.0000000000E-05      5.0000000000E+02      upw_ks                1.0000000000E+00      0.0000000000E+00      1          
ks_170                log                   factor                2.0364250000E-03      1.0000000000E-05      5.0000000000E+02      upw_ks                1.0000000000E+00      0.0000000000E+00      1          
ks_171                log                   factor                1.0889337950E+00      1.0000000000E-05      5.0000000000E+02      upw_ks                1.0000000000E+00      0.0000000000E+00      1          
ks_172                log                   factor                1.9197837000E-02      1.0000000000E-05      5.0000000000E+02      upw_ks                1.0000000000E+00      0.0000000000E+00      1          
ks_173                log                   factor                8.0006990000E-03      1.0000000000E-05      5.0000000000E+02      upw_ks                1.0000000000E+00      0.0000000000E+00      1          
ks_174                log                   factor                5.8449279710E+00      1.0000000000E-05      5.0000000000E+02      upw_ks                1.0000000000E+00      0.0000000000E+00      1          
ks_175                log                   factor                1.2517500600E-01      1.0000000000E-05      5.0000000000E+02      upw_ks                1.0000000000E+00      0.0000000000E+00      1          
ks_176                log                   factor                4.5434360000E-03      1.0000000000E-05      5.0000000000E+02      upw_ks                1.0000000000E+00      0.0000000000E+00      1          
ks_177                log                   factor                1.1086534910E+00      1.0000000000E-05      5.0000000000E+02      upw_ks                1.0000000000E+00      0.0000000000E+00      1          
ks_178                log                   factor                2.0082000000E-04      1.0000000000E-05      5.0000000000E+02      upw_ks                1.0000000000E+00      0.0000000000E+00      1          
ks_179                log                   factor                2.0706721960E+00      1.0000000000E-05      5.0000000000E+02      upw_ks                1.0000000000E+00      0.0000000000E+00      1          
ks_18                 log                   factor                2.5278579110E+00      1.0000000000E-05      5.0000000000E+02      upw_ks                1.0000000000E+00      0.0000000000E+00      1          
ks_180                log                   factor                1.9100000000E-05      1.0000000000E-05      5.0000000000E+02      upw_ks                1.0000000000E+00      0.0000000000E+00      1          
ks_181                log                   factor                3.1523968700E-01      1.0000000000E-05      5.0000000000E+02      upw_ks                1.0000000000E+00      0.0000000000E+00      1          
ks_182                log                   factor                4.8530043240E+00      1.0000000000E-05      5.0000000000E+02      upw_ks                1.0000000000E+00      0.0000000000E+00      1          
ks_183                log                   factor                9.6398009600E-01      1.0000000000E-05      5.0000000000E+02      upw_ks                1.0000000000E+00      0.0000000000E+00      1          
ks_184                log                   factor                4.0351000000E-04      1.0000000000E-05      5.0000000000E+02      upw_ks                1.0000000000E+00      0.0000000000E+00      1          
ks_185                log                   factor                9.5600000000E-05      1.0000000000E-05      5.0000000000E+02      upw_ks                1.0000000000E+00      0.0000000000E+00      1          
ks_186                log                   factor                9.8400000000E-05      1.0000000000E-05      5.0000000000E+02      upw_ks                1.0000000000E+00      0.0000000000E+00      1          
ks_187                log                   factor                1.0939100000E-04      1.0000000000E-05      5.0000000000E+02      upw_ks                1.0000000000E+00      0.0000000000E+00      1          
ks_188                log                   factor                3.9367600000E-04      1.0000000000E-05      5.0000000000E+02      upw_ks                1.0000000000E+00      0.0000000000E+00      1          
ks_189                log                   factor                1.1237000000E-04      1.0000000000E-05      5.0000000000E+02      upw_ks                1.0000000000E+00      0.0000000000E+00      1          
ks_19                 log                   factor                4.4723694550E+01      1.0000000000E-05      5.0000000000E+02      upw_ks                1.0000000000E+00      0.0000000000E+00      1          
ks_190                log                   factor                1.0000000000E-05      1.0000000000E-05      5.0000000000E+02      upw_ks                1.0000000000E+00      0.0000000000E+00      1          
ks_191                log                   factor                1.0094800000E-04      1.0000000000E-05      5.0000000000E+02      upw_ks                1.0000000000E+00      0.0000000000E+00      1          
ks_192                log                   factor                1.2870800000E-04      1.0000000000E-05      5.0000000000E+02      upw_ks                1.0000000000E+00      0.0000000000E+00      1          
ks_193                log                   factor                1.0200000000E-05      1.0000000000E-05      5.0000000000E+02      upw_ks                1.0000000000E+00      0.0000000000E+00      1          
ks_194                log                   factor                1.0000000000E-05      1.0000000000E-05      5.0000000000E+02      upw_ks                1.0000000000E+00      0.0000000000E+00      1          
ks_195                log                   factor                7.7565100000E-04      1.0000000000E-05      5.0000000000E+02      upw_ks                1.0000000000E+00      0.0000000000E+00      1          
ks_196                log                   factor                1.0000000000E-05      1.0000000000E-05      5.0000000000E+02      upw_ks                1.0000000000E+00      0.0000000000E+00      1          
ks_197                log                   factor                1.3109600000E-04      1.0000000000E-05      5.0000000000E+02      upw_ks                1.0000000000E+00      0.0000000000E+00      1          