# HOB package for  MODFLOW-NWT, generated by Flopy.
       169         0         0         0     -9999
         1
HO_0                    1        290        181          1                  0.0    -0.4858    -0.4281    38.3134   # DATASET 3 - Observation 1
HO_1                    1        292        178          1                  0.0     0.2332    -0.1701    38.8010   # DATASET 3 - Observation 2
HO_2                    1        294        158          1                  0.0     0.4200    -0.0683    27.7947   # DATASET 3 - Observation 3
HO_3                    1        296        157          1                  0.0     0.0147    -0.4443    18.7147   # DATASET 3 - Observation 4
HO_4                    1        375        150          1                  0.0     0.1560     0.2583    60.0547   # DATASET 3 - Observation 5
HO_5                    1        294        148          1                  0.0    -0.4371     0.1376    24.6328   # DATASET 3 - Observation 6
HO_6                    1        330        148          1                  0.0    -0.4893     0.0111    15.5082   # DATASET 3 - Observation 7
HO_7                    3        212        147          1                  0.0    -0.2240    -0.0904   553.6600   # DATASET 3 - Observation 8
HO_8                    1        254        145          1                  0.0     0.0099     0.2711    64.7124   # DATASET 3 - Observation 9
HO_9                    1        258        143          1                  0.0     0.2733     0.1496    58.2778   # DATASET 3 - Observation 10
HO_10                   3        258        136          1                  0.0     0.2492    -0.1602    95.8992   # DATASET 3 - Observation 11
HO_11                   1        269        131          1                  0.0    -0.0800    -0.1283    45.2890   # DATASET 3 - Observation 12
HO_12                   1        275        130          1                  0.0    -0.3901     0.4958    57.9973   # DATASET 3 - Observation 13
HO_13                   3        348        130          1                  0.0    -0.3599     0.1744    60.7131   # DATASET 3 - Observation 14
HO_14                   3        305        126          1                  0.0     0.0966    -0.4624   380.5398   # DATASET 3 - Observation 15
HO_15                   3        367        123          1                  0.0     0.4825     0.0641   321.5152   # DATASET 3 - Observation 16
HO_16                   3        222        116          1                  0.0     0.0736    -0.1097    89.0276   # DATASET 3 - Observation 17
HO_17                   1        230        111          1                  0.0    -0.3239    -0.0151   104.5365   # DATASET 3 - Observation 18
HO_18                   3        159        101          1                  0.0     0.0880     0.4520   238.9632   # DATASET 3 - Observation 19
HO_19                   3        155        100          1                  0.0     0.3886     0.4114   234.0575   # DATASET 3 - Observation 20
HO_20                   2        158        100          1                  0.0     0.4708     0.1691   219.5383   # DATASET 3 - Observation 21
HO_21                   3        158        100          1                  0.0     0.4707     0.0889   220.8305   # DATASET 3 - Observation 22
HO_22                   3        156        100          1                  0.0    -0.3034     0.0905   256.0741   # DATASET 3 - Observation 23
HO_23                   3        160        100          1                  0.0     0.0119     0.0078   229.4248   # DATASET 3 - Observation 24
HO_24                   3        160        100          1                  0.0     0.4228    -0.0727   230.2480   # DATASET 3 - Observation 25
HO_25                   3        161        100          1                  0.0    -0.4745    -0.1529   226.5201   # DATASET 3 - Observation 26
HO_26                   3        155        100          1                  0.0    -0.1255    -0.1496   258.1863   # DATASET 3 - Observation 27
HO_27                   3        158        100          1                  0.0     0.1622    -0.3921   220.4496   # DATASET 3 - Observation 28
HO_28                   3        154        100          1                  0.0    -0.0503    -0.3896   248.5934   # DATASET 3 - Observation 29
HO_29                   3        154         99          1                  0.0     0.1550     0.2895   237.5507   # DATASET 3 - Observation 30
HO_30                   3        158         99          1                  0.0    -0.0436     0.1268   217.5948   # DATASET 3 - Observation 31
HO_31                   3        154         99          1                  0.0     0.0521     0.0490   245.3903   # DATASET 3 - Observation 32
HO_32                   2        157         99          1                  0.0     0.2371    -0.0332   205.7370   # DATASET 3 - Observation 33
HO_33                   3        155         99          1                  0.0    -0.4345    -0.3523   233.6597   # DATASET 3 - Observation 34
HO_34                   3        154         99          1                  0.0     0.3600    -0.4324   239.3838   # DATASET 3 - Observation 35
HO_35                   3        159         98          1                  0.0    -0.2220     0.4846   199.0420   # DATASET 3 - Observation 36
HO_36                   2        158         98          1                  0.0     0.0584    -0.0763   204.3538   # DATASET 3 - Observation 37
HO_37                   2        155         98          1                  0.0     0.3869    -0.2349   219.5149   # DATASET 3 - Observation 38
HO_38                   3        157         97          1                  0.0    -0.1750     0.2829   237.5769   # DATASET 3 - Observation 39
HO_39                   3        157         97          1                  0.0    -0.1750     0.2027   232.4211   # DATASET 3 - Observation 40
HO_40                   3        157         97          1                  0.0    -0.2778     0.1226   238.8917   # DATASET 3 - Observation 41
HO_41                   2        158         97          1                  0.0    -0.1478    -0.1188   189.3600   # DATASET 3 - Observation 42
HO_42                   3        157         97          1                  0.0     0.4412    -0.1185   200.1998   # DATASET 3 - Observation 43
HO_43                   2        158         97          1                  0.0    -0.1480    -0.3594   199.7278   # DATASET 3 - Observation 44
HO_44                   3        158         97          1                  0.0    -0.4562    -0.3592   196.1876   # DATASET 3 - Observation 45
HO_45                   3        166         95          1                  0.0    -0.4433    -0.0495   184.2821   # DATASET 3 - Observation 46
HO_46                   2        335         95          1                  0.0    -0.4938    -0.0975    14.0574   # DATASET 3 - Observation 47
HO_47                   3        162         93          1                  0.0     0.2676     0.4290   165.5506   # DATASET 3 - Observation 48
HO_48                   2        162         93          1                  0.0     0.1646     0.1082   119.1158   # DATASET 3 - Observation 49
HO_49                   2        224         93          1                  0.0    -0.2650    -0.3449   337.2764   # DATASET 3 - Observation 50
HO_50                   2        151         91          1                  0.0    -0.2417     0.3539   250.3956   # DATASET 3 - Observation 51
HO_51                   2        149         89          1                  0.0     0.2152     0.4311   237.7501   # DATASET 3 - Observation 52
HO_52                   3        196         85          1                  0.0    -0.4973     0.2422   342.9610   # DATASET 3 - Observation 53
HO_53                   1        162         85          1                  0.0    -0.1280    -0.3773   140.0861   # DATASET 3 - Observation 54
HO_54                   3        173         82          1                  0.0     0.2432    -0.0466   336.1030   # DATASET 3 - Observation 55
HO_55                   3        156         81          1                  0.0    -0.3216    -0.1560   147.6360   # DATASET 3 - Observation 56
HO_56                   1        130         74          1                  0.0    -0.2244    -0.2523   155.5135   # DATASET 3 - Observation 57
HO_57                   1        124         71          1                  0.0     0.0168    -0.2068   162.7464   # DATASET 3 - Observation 58
HO_58                   2        106         69          1                  0.0     0.3227     0.4716   196.1540   # DATASET 3 - Observation 59
HO_59                   2         60         65          1                  0.0    -0.3159    -0.0102   315.9039   # DATASET 3 - Observation 60
HO_60                   2         60         64          1                  0.0    -0.3171     0.3506   261.9817   # DATASET 3 - Observation 61
HO_61                   3         48         63          1                  0.0     0.1729     0.4944   266.2253   # DATASET 3 - Observation 62
HO_62                   1        117         64          1                  0.0     0.4915    -0.3213   160.1815   # DATASET 3 - Observation 63
HO_63                   1        117         64          1                  0.0     0.4401    -0.3693   161.9006   # DATASET 3 - Observation 64
HO_64                   2         59         63          1                  0.0     0.3716    -0.1669   273.7223   # DATASET 3 - Observation 65
HO_65                   1         95         61          1                  0.0    -0.1835    -0.3183   176.0525   # DATASET 3 - Observation 66
HO_66                   1         51         59          1                  0.0     0.2460    -0.0645   236.4090   # DATASET 3 - Observation 67
HO_67                   2         58         59          1                  0.0     0.4381    -0.3196   222.7683   # DATASET 3 - Observation 68
HO_68                   2         60         59          1                  0.0    -0.3292    -0.4821   181.5770   # DATASET 3 - Observation 69
HO_69                   1         45         59          1                  0.0    -0.4130    -0.2403   245.4844   # DATASET 3 - Observation 70
HO_70                   2         64         57          1                  0.0    -0.1199    -0.0895   202.2395   # DATASET 3 - Observation 71
HO_71                   1         49         57          1                  0.0    -0.2249    -0.2156   229.0008   # DATASET 3 - Observation 72
HO_72                   1         55         57          1                  0.0    -0.0601    -0.3891   209.3194   # DATASET 3 - Observation 73
HO_73                   3         42         56          1                  0.0    -0.3159     0.3211   239.6684   # DATASET 3 - Observation 74
HO_74                   3         42         56          1                  0.0    -0.2133     0.2411   239.4304   # DATASET 3 - Observation 75
HO_75                   2         60         56          1                  0.0     0.1792     0.1197   212.7849   # DATASET 3 - Observation 76
HO_76                   1         51         56          1                  0.0     0.1364    -0.0995   216.1938   # DATASET 3 - Observation 77
HO_77                   1         41         56          1                  0.0    -0.2417    -0.1558   235.8403   # DATASET 3 - Observation 78
HO_78                   3         53         55          1                  0.0     0.2913    -0.3825   221.0471   # DATASET 3 - Observation 79
HO_79                   1         59         53          1                  0.0     0.3506     0.3251   240.2383   # DATASET 3 - Observation 80
HO_80                   3         59         53          1                  0.0     0.0422     0.2459   238.4085   # DATASET 3 - Observation 81
HO_81                   1         44         52          1                  0.0    -0.2714    -0.1551   243.4120   # DATASET 3 - Observation 82
HO_82                   1         40         52          1                  0.0    -0.4846    -0.3046   216.5909   # DATASET 3 - Observation 83
HO_83                   1         35         51          1                  0.0    -0.3148     0.3878   246.8575   # DATASET 3 - Observation 84
HO_84                   2         57         51          1                  0.0     0.4943    -0.4668   219.9798   # DATASET 3 - Observation 85
HO_85                   3         57         51          1                  0.0     0.3915    -0.4665   235.4193   # DATASET 3 - Observation 86
HO_86                   1         30         50          1                  0.0     0.4697     0.3606   261.6144   # DATASET 3 - Observation 87
HO_87                   1         40         50          1                  0.0    -0.0780    -0.0621   258.6902   # DATASET 3 - Observation 88
HO_88                   1         54         50          1                  0.0     0.2040    -0.3374   223.7278   # DATASET 3 - Observation 89
HO_89                   2         54         49          1                  0.0     0.2346     0.4725   216.5772   # DATASET 3 - Observation 90
HO_90                   3         50         48          1                  0.0    -0.2174     0.4756   248.2718   # DATASET 3 - Observation 91
HO_91                   3         49         48          1                  0.0     0.3712     0.3170   250.7163   # DATASET 3 - Observation 92
HO_92                   1        328        156          1                  0.0     0.2422    -0.0659    13.0244   # DATASET 3 - Observation 93
HO_93                   1        324        156          1                  0.0     0.3207     0.4802    16.4624   # DATASET 3 - Observation 94
HO_94                   1        323        156          1                  0.0    -0.2695     0.3325    10.5620   # DATASET 3 - Observation 95
HO_95                   2        323        156          1                  0.0    -0.2695     0.3325     9.6842   # DATASET 3 - Observation 96
HO_96                   1        314        157          1                  0.0    -0.2983    -0.3786    16.1963   # DATASET 3 - Observation 97
HO_97                   1        311        156          1                  0.0     0.0777    -0.0293    18.1357   # DATASET 3 - Observation 98
HO_98                   1        311        158          1                  0.0     0.0248    -0.1082    18.0525   # DATASET 3 - Observation 99
HO_99                   3        302        153          1                  0.0     0.0963    -0.0087    21.1822   # DATASET 3 - Observation 100
HO_100                  2        283        149          1                  0.0     0.4110     0.4626    38.0300   # DATASET 3 - Observation 101
HO_101                  2        281        147          1                  0.0    -0.0635    -0.2245    62.4272   # DATASET 3 - Observation 102
HO_102                  1        260        124          1                  0.0     0.0412     0.4641    51.6168   # DATASET 3 - Observation 103
HO_103                  1        259        126          1                  0.0     0.3997    -0.2548    55.6916   # DATASET 3 - Observation 104
HO_104                  3        232        119          1                  0.0     0.0288    -0.0979    83.2608   # DATASET 3 - Observation 105
HO_105                  1        228        115          1                  0.0     0.0353     0.3114    85.7910   # DATASET 3 - Observation 106
HO_106                  3        225        116          1                  0.0    -0.3706     0.1580    85.6307   # DATASET 3 - Observation 107
HO_107                  1         46         88          1                  0.0     0.1012    -0.1440   274.9645   # DATASET 3 - Observation 108
HO_108                  1         30         82          1                  0.0    -0.3673    -0.1026   290.5328   # DATASET 3 - Observation 109
HO_109                  1         30         82          1                  0.0    -0.4046    -0.3036   290.8368   # DATASET 3 - Observation 110
HO_110                  3        388        153          1                  0.0     0.3874    -0.1487   190.3752   # DATASET 3 - Observation 111
HO_111                  1        374        148          1                  0.0     0.2282    -0.2041    91.0754   # DATASET 3 - Observation 112
HO_112                  1        373        153          1                  0.0     0.2233    -0.3737    46.2757   # DATASET 3 - Observation 113
HO_113                  2        369        160          1                  0.0     0.0319     0.3324    52.0233   # DATASET 3 - Observation 114
HO_114                  1        359        144          1                  0.0    -0.1540     0.1118    45.1890   # DATASET 3 - Observation 115
HO_115                  2        354        153          1                  0.0     0.4698     0.4727    51.6235   # DATASET 3 - Observation 116
HO_116                  1        270        157          1                  0.0     0.0410     0.3555    48.1336   # DATASET 3 - Observation 117
HO_117                  1        272        167          1                  0.0     0.4336    -0.3388    48.8850   # DATASET 3 - Observation 118
HO_118                  1        299        188          1                  0.0     0.2488     0.2763    14.0851   # DATASET 3 - Observation 119
HO_119                  1        295        182          1                  0.0     0.2712    -0.2579    34.2283   # DATASET 3 - Observation 120
HO_120                  2        286        177          1                  0.0     0.1835    -0.0095    47.9483   # DATASET 3 - Observation 121
HO_121                  1        285        182          1                  0.0    -0.2753    -0.3933    50.0925   # DATASET 3 - Observation 122
HO_122                  1        279        171          1                  0.0    -0.3869     0.4912    43.5927   # DATASET 3 - Observation 123
HO_123                  1        277        169          1                  0.0    -0.3798     0.3409    45.9416   # DATASET 3 - Observation 124
HO_124                  1        275        158          1                  0.0    -0.0875    -0.4868    46.9296   # DATASET 3 - Observation 125
HO_125                  1        271        154          1                  0.0    -0.1967    -0.2702    47.0547   # DATASET 3 - Observation 126
HO_126                  1        268        165          1                  0.0    -0.1370    -0.2866    59.3316   # DATASET 3 - Observation 127
HO_127                  1        266        158          1                  0.0    -0.4499     0.3164    59.0072   # DATASET 3 - Observation 128
HO_128                  1        257        148          1                  0.0     0.3563     0.3431    53.3847   # DATASET 3 - Observation 129
HO_129                  3        250        140          1                  0.0     0.3122     0.2223    72.5797   # DATASET 3 - Observation 130
HO_130                  2        113         68          1                  0.0     0.0619    -0.3726   168.7969   # DATASET 3 - Observation 131
HO_131                  2        113         68          1                  0.0    -0.4976    -0.3134   167.0870   # DATASET 3 - Observation 132
HO_132                  2        111         66          1                  0.0     0.0264    -0.1180   166.0713   # DATASET 3 - Observation 133
HO_133                  1        111         67          1                  0.0    -0.3417    -0.1634   169.6741   # DATASET 3 - Observation 134
HO_134                  1        106         62          1                  0.0    -0.1049    -0.1971   169.7930   # DATASET 3 - Observation 135
HO_135                  1        105         63          1                  0.0     0.0858    -0.4687   170.5539   # DATASET 3 - Observation 136
HO_136                  1        105         63          1                  0.0    -0.1344    -0.3208   170.1369   # DATASET 3 - Observation 137
HO_137                  2        103         60          1                  0.0    -0.0462    -0.4038   169.9185   # DATASET 3 - Observation 138
HO_138                  1        102         61          1                  0.0    -0.1721    -0.1309   170.3379   # DATASET 3 - Observation 139
HO_139                  1         99         58          1                  0.0     0.0509     0.0821   168.2882   # DATASET 3 - Observation 140
HO_140                  1         87         54          1                  0.0     0.1799     0.4699   189.6888   # DATASET 3 - Observation 141
HO_141                  1         82         56          1                  0.0     0.3785     0.4733   183.7807   # DATASET 3 - Observation 142
HO_142                  2         80         58          1                  0.0     0.2435    -0.4943   179.2175   # DATASET 3 - Observation 143
HO_143                  2         80         58          1                  0.0     0.2435    -0.4943   176.7923   # DATASET 3 - Observation 144
HO_144                  2         80         58          1                  0.0     0.2435    -0.4943   176.5627   # DATASET 3 - Observation 145
HO_145                  2         80         58          1                  0.0     0.2435    -0.4943   176.3432   # DATASET 3 - Observation 146
HO_146                  2         60         58          1                  0.0     0.3657     0.3062   200.4388   # DATASET 3 - Observation 147
HO_147                  2         60         58          1                  0.0     0.3657     0.3062   186.4536   # DATASET 3 - Observation 148
HO_148                  2         60         58          1                  0.0     0.3657     0.3062   195.7510   # DATASET 3 - Observation 149
HO_149                  3         58         69          1                  0.0     0.1286    -0.1384   295.8366   # DATASET 3 - Observation 150
HO_150                  1         57         49          1                  0.0    -0.3711    -0.3145   211.7169   # DATASET 3 - Observation 151
HO_151                  1         55         54          1                  0.0     0.2213    -0.0539   218.7893   # DATASET 3 - Observation 152
HO_152                  3         55         55          1                  0.0    -0.2131    -0.1700   214.9810   # DATASET 3 - Observation 153
HO_153                  2         53         59          1                  0.0     0.3571    -0.0401   231.2637   # DATASET 3 - Observation 154
HO_154                  1         53         49          1                  0.0     0.1993    -0.4812   222.4643   # DATASET 3 - Observation 155
HO_155                  3         50         64          1                  0.0     0.2089     0.2744   270.8111   # DATASET 3 - Observation 156
HO_156                  2        164         80          1                  0.0    -0.2386     0.3402   148.4500   # DATASET 3 - Observation 157
HO_157                  1        162         85          1                  0.0    -0.4889     0.3386   143.3147   # DATASET 3 - Observation 158
HO_158                  1        162         85          1                  0.0    -0.4889     0.3386   142.5233   # DATASET 3 - Observation 159
HO_159                  1        158         89          1                  0.0     0.1864     0.4999   161.1094   # DATASET 3 - Observation 160
HO_160                  1        156         81          1                  0.0    -0.4127    -0.0716   147.6224   # DATASET 3 - Observation 161
HO_161                  1        352        100          1                  0.0     0.3474    -0.3930    11.0639   # DATASET 3 - Observation 162
HO_162                  2        345        117          1                  0.0    -0.4132     0.4002     0.9746   # DATASET 3 - Observation 163
HO_163                  3        338        145          1                  0.0    -0.3118    -0.4852     5.4126   # DATASET 3 - Observation 164
HO_164                  1        335        149          1                  0.0    -0.2381    -0.2058     0.5405   # DATASET 3 - Observation 165
HO_165                  1        331        153          1                  0.0     0.2420     0.3523    12.4677   # DATASET 3 - Observation 166
HO_166                  1        292        207          1                  0.0     0.4676     0.0677   136.5871   # DATASET 3 - Observation 167
HO_167                  1        285        205          1                  0.0    -0.4309     0.3364   125.5691   # DATASET 3 - Observation 168
HO_168                  1        102         60          1                  0.0     0.2839    -0.4035   171.4426   # DATASET 3 - Observation 169
