# WEL package for  MODFLOW-NWT, generated by Flopy.
       434         0 
       434         0 # stress period 1
         3       162        80  -1.2067570E+02
         2        59        57  -1.1340994E+02
         1       133        75  -2.8479191E+01
         2       129        73  -2.8479191E+01
         1       129        73  -2.8479191E+01
         1       129        73  -2.8479191E+01
         1       129        73  -2.8479191E+01
         3        61        67  -2.7093094E+01
         3        61        67  -2.7093094E+01
         3        61        68  -2.7093094E+01
         2        62        67  -2.7093094E+01
         2        62        67  -2.7093094E+01
         3        34        24  -7.7418068E+01
         3        32        32  -7.7418068E+01
         3        29        28  -7.7418068E+01
         2       102        68  -4.0514763E+01
         2       101        67  -4.0514763E+01
         2       102        68  -4.0514763E+01
         1        32        85  -9.5231466E+00
         1        32        85  -9.5231466E+00
         2       117        66  -3.9509361E+01
         1       137        77  -2.0902153E+01
         1       133        71  -2.0902153E+01
         1       133        71  -2.0902153E+01
         1       136        77  -2.0902153E+01
         1       233       117  -1.2789302E+01
         1       155        84  -6.2060669E+01
         1       155        85  -6.2060669E+01
         1       155        84  -6.2060669E+01
         2        63        65  -5.8294382E+00
         2        63        63  -4.5777431E+00
         2        63        64  -4.5777431E+00
         2        63        65  -4.9234688E-01
         2        65        61  -1.8803902E+00
         2        95        62  -4.0455109E+02
         1        95        62  -4.0455109E+02
         1        96        62  -4.0455109E+02
         1        95        62  -4.0455109E+02
         2        95        62  -4.0455109E+02
         2        89        61  -5.9932202E+02
         1        91        57  -5.9932202E+02
         2        94        60  -5.9932202E+02
         1        98        57  -5.9932202E+02
         1        91        58  -5.9932202E+02
         1        91        58  -5.9932202E+02
         1        97        57  -5.9932202E+02
         1        96        59  -5.9932202E+02
         2       106        59  -6.7241992E+02
         1       106        59  -6.7241992E+02
         1       106        59  -6.7241992E+02
         2       116        63  -6.7241992E+02
         2       116        63  -6.7241992E+02
         1        79        57  -2.0225151E+02
         1        81        57  -2.0225151E+02
         1        81        56  -2.0225151E+02
         1        81        57  -2.0225151E+02
         1        81        57  -2.0225151E+02
         1        80        57  -2.0225151E+02
         1        80        57  -2.0225151E+02
         1        80        57  -2.0225151E+02
         1        80        57  -2.0225151E+02
         1        80        57  -2.0225151E+02
         1        80        57  -2.0225151E+02
         1        80        57  -2.0225151E+02
         1        80        57  -2.0225151E+02
         1        80        57  -2.0225151E+02
         1        80        57  -2.0225151E+02
         1        80        57  -2.0225151E+02
         1        80        57  -2.0225151E+02
         1        80        57  -2.0225151E+02
         1        80        57  -2.0225151E+02
         1        80        57  -2.0225151E+02
         3       162        80  -2.6007294E+02
         1       161        84  -2.6007294E+02
         3       162        80  -2.6007294E+02
         2       274       166  -7.5760978E-01
         2       322        88  -1.2846250E+01
         2       322        88  -1.2846250E+01
         3       326        82  -1.2846250E+01
         3       324        84  -1.2846250E+01
         3       324        84  -1.2846250E+01
         3       326        82  -1.2846250E+01
         2       322        88  -1.2846250E+01
         3       324        83  -1.2846250E+01
         2       322        88  -1.2846250E+01
         1       228       113  -1.8620493E+02
         1       228       112  -1.8620493E+02
         2       248       138  -3.7394863E+01
         1       250       138  -3.7394863E+01
         1       250       138  -3.7394863E+01
         2       248       138  -3.7394863E+01
         2       369       160  -1.7596909E+01
         2       369       160  -1.7596909E+01
         2       369       160  -1.7596909E+01
         2       369       160  -1.7596909E+01
         1       235       120  -1.2286574E+02
         1       287       160  -2.6296568E+01
         1       287       160  -2.6296568E+01
         1       287       160  -2.6296568E+01
         1       287       160  -2.6296568E+01
         1       227       111  -1.6884557E+02
         2       238       113  -4.9242485E+01
         1       234       117  -4.9242485E+01
         3       343        99  -3.1727589E+01
         3       329        96  -5.3870006E+00
         3       329        96  -5.3870006E+00
         2       341        97  -4.6153622E+00
         2       340        98  -4.6153622E+00
         2       341        97  -4.6153622E+00
         2       341        97  -1.1683724E+01
         3       344       100  -1.0742142E+01
         2       344       100  -1.0742142E+01
         3       344        98  -1.0742142E+01
         2       335        94  -2.2464291E+01
         2       335        94  -2.2464291E+01
         2       338        95  -1.2567676E+01
         3       338        95  -1.2567676E+01
         2       332        94  -5.0743227E+00
         2       332        94  -5.0743227E+00
         2       335        94  -5.0743227E+00
         3       335        94  -5.0743227E+00
         2       335        94  -5.0743227E+00
         3       361        85  -1.7072330E+01
         1       281       171  -1.2677577E+01
         1       281       171  -1.2677577E+01
         1       296       158  -1.2641526E+01
         1       296       158  -1.2641526E+01
         1       358       156  -6.9902935E+00
         1       358       156  -6.9902935E+00
         2       374       151  -2.3657995E+01
         3       232       125  -3.4234482E+01
         2       360       154  -1.8231766E+01
         1       278       174  -1.0936635E+00
         1       254       147  -7.8536255E+01
         2       380       162  -1.6283666E+00
         2       379       162  -1.6283666E+00
         2       379       162  -1.6283666E+00
         2       376       157  -6.2791991E+00
         2       376       157  -6.2791991E+00
         2       376       157  -6.2791991E+00
         3       305       148  -5.5435438E+00
         3       305       148  -5.5435438E+00
         3       306       148  -5.5435438E+00
         3       224       116  -3.2119152E+01
         3       224       117  -3.2119152E+01
         1       333       131  -2.2432835E+00
         1       333       131  -2.2432835E+00
         1       333       131  -2.2432835E+00
         1       349       101  -3.5373978E+01
         1       349       100  -3.5373978E+01
         1       349       101  -3.5373978E+01
         1       349       101  -3.5373978E+01
         1       355       154  -6.7527165E+00
         1       355       154  -6.7527165E+00
         1       355       154  -6.7527165E+00
         1       344       156  -1.5119076E+01
         1       344       156  -1.5119076E+01
         2       370       156  -1.5119076E+01
         3       279       179  -9.6443039E+01
         2       271       151  -7.3241608E+01
         1       271       151  -7.3241608E+01
         3       271       151  -7.3241608E+01
         1       353        98  -1.6669379E+02
         2       364       158  -4.2147655E+01
         2       363       158  -4.2147655E+01
         2       363       158  -4.2147655E+01
         2       364       158  -4.2147655E+01
         1       214       112  -7.3900704E+00
         1       214       112  -7.3900704E+00
         3       308       157  -1.2420856E+01
         3       308       160  -1.2420856E+01
         3       308       159  -1.2420856E+01
         3       308       159  -1.2420856E+01
         3       309       159  -1.2420856E+01
         3       309       159  -1.2420856E+01
         3       308       160  -1.2420856E+01
         3       308       160  -1.2420856E+01
         2       308       160  -1.1077050E+01
         3       308       160  -1.1077050E+01
         3       308       160  -1.1077050E+01
         1       298       149  -1.0929878E+00
         2       254       137  -3.2356369E+01
         1       255       139  -3.2356369E+01
         1       255       139  -3.2356369E+01
         2       255       136  -3.2356369E+01
         2       254       137  -3.2356369E+01
         3       367       129  -2.6843314E+00
         3       367       129  -2.6843314E+00
         3       367       130  -2.6843314E+00
         3       369       130  -2.6843314E+00
         3       367       129  -2.6843314E+00
         3       361       121  -8.6240864E+00
         3       361       122  -8.6240864E+00
         3       362       122  -8.6240864E+00
         2       269       152  -7.4802368E+01
         3       269       152  -7.4802368E+01
         1       286       175  -1.4395052E+01
         2       284       179  -1.4395052E+01
         2       283       180  -1.4395052E+01
         2       348       148  -3.2510757E+01
         2       348       148  -3.2510757E+01
         2       265       151  -1.7744434E+01
         1       265       151  -1.7744434E+01
         2       266       149  -1.7744434E+01
         3       259       133  -9.3656597E+00
         3       259       134  -9.3656597E+00
         3       258       133  -9.3656597E+00
         1       303       156  -1.5559036E+01
         3       326       150  -2.9723136E+00
         3       220       170  -1.1564089E+00
         3       222       169  -1.1564089E+00
         2       207       108  -1.2408105E+00
         2       207       108  -1.2408105E+00
         1       278       137  -2.6161766E+00
         1       278       135  -5.5415745E+00
         1       278       135  -5.5415745E+00
         3       275       128  -1.8822544E+00
         3       277       129  -1.8822544E+00
         2       309       219  -4.7891378E+00
         1       353        98  -1.0660275E+02
         1       297       151  -1.4327363E+00
         1       297       151  -1.4327363E+00
         2       278       144  -1.1275357E+00
         2       278       144  -1.1275357E+00
         1       273       156  -2.6426229E+00
         1       273       156  -2.6426229E+00
         3       278       159  -2.6426229E+00
         1       260       124  -3.2810154E+00
         1       260       123  -3.2810154E+00
         3       351       132  -1.6173475E+01
         2       351       133  -1.6173475E+01
         3       351       132  -1.6173475E+01
         2       351       133  -1.6173475E+01
         2       351       133  -1.6173475E+01
         3       351       132  -1.6173475E+01
         2       351       133  -1.6173475E+01
         3       328        97  -7.1681471E+00
         3       328        97  -7.1681471E+00
         3       326        88  -1.6795127E+00
         3       326        88  -1.6795127E+00
         3       326        88  -1.6795127E+00
         3       258       110  -2.9840088E-01
         3       258       110  -2.9840088E-01
         2       353       152  -3.3295364E+00
         2       353       152  -3.3295364E+00
         2       353       152  -3.3295364E+00
         2       364       159  -4.6987777E+00
         2       364       159  -4.6987777E+00
         1       278       135  -8.6547441E+00
         1       279       136  -8.6547441E+00
         1       279       136  -8.6547441E+00
         1       279       136  -8.6547441E+00
         2       266       157  -1.4892746E+01
         3       275       177  -1.5720813E+02
         2       280       172  -1.5720813E+02
         2       280       172  -1.5720813E+02
         3       275       177  -1.5720813E+02
         3       273       177  -1.5720813E+02
         3       368       127  -1.2317272E+00
         3       368       127  -1.2317272E+00
         2       353       151  -6.9874430E-01
         2       353       151  -6.9874430E-01
         1       267       151  -1.6965210E+01
         2       266       149  -1.6965210E+01
         2       274       156  -1.6965210E+01
         2       273       167  -1.7834240E+00
         1       267       159  -3.2200983E+00
         2       267       159  -3.2200983E+00
         1       276       132  -5.3407151E-01
         1       277       132  -5.3407151E-01
         2       324       113  -7.1844435E-01
         3       324       113  -7.1844435E-01
         3       324       113  -7.1844435E-01
         3       324       113  -7.1844435E-01
         1       216       109  -7.4251449E-01
         1       216       110  -7.4251449E-01
         1       216       110  -7.4251449E-01
         1       216       109  -7.4251449E-01
         3       279       178  -2.6459739E+00
         3       368       143  -5.5364242E+00
         3       368       143  -5.5364242E+00
         2       375       158  -2.2889465E-01
         2       375       158  -2.2889465E-01
         1       245       130  -1.4515617E+00
         2       244       126  -1.4515617E+00
         1       245       130  -1.4515617E+00
         3       273       153  -5.3487679E+01
         3       272       150  -5.3487679E+01
         1       258       120  -4.8484798E+01
         1       257       121  -4.8484798E+01
         1       257       121  -4.8484798E+01
         1       236       119  -1.8915695E+01
         1       235       119  -1.8915695E+01
         1       236       119  -1.8915695E+01
         1       235       119  -1.8915695E+01
         1       235       119  -1.8915695E+01
         1       301       151  -6.4456606E-01
         3       302       148  -6.4456606E-01
         2       364       151  -1.1426127E+01
         3       364       151  -1.1426127E+01
         1       353        99  -5.6864327E-01
         1       353        98  -5.6864327E-01
         1       353        99  -5.6864327E-01
         3       276       148  -7.5629077E+00
         3       277       147  -7.5629077E+00
         2       281       145  -7.5629077E+00
         2       360       152  -2.5797734E+00
         3       366       142  -2.5797734E+00
         1       297       155  -2.4519759E-01
         1       297       155  -2.4519759E-01
         2       312       159  -1.2263283E+01
         2       312       159  -1.2263283E+01
         2       312       158  -1.2263283E+01
         2       359       152  -3.9364989E+00
         2       359       152  -3.9364989E+00
         1       359       152  -3.9364989E+00
         2       359       152  -3.9364989E+00
         2       276       139  -5.9989552E+01
         1       277       138  -5.9989552E+01
         1       298       157  -3.3473465E+01
         2       298       157  -3.3473465E+01
         2       275       167  -5.7424007E+01
         2       275       168  -5.7424007E+01
         3       308       147  -2.4737782E+00
         3       308       147  -2.4737782E+00
         3       308       147  -2.4737782E+00
         1       247       132  -9.7872063E+01
         1       247       132  -9.7872063E+01
         2       364       159  -2.3125410E+02
         1       320       154  -1.0730034E+02
         1       319       154  -1.0730034E+02
         2       356       151  -8.0250320E+00
         1       314       219  -4.5649815E+00
         1       335       144  -2.9930069E+00
         1       335       144  -2.9930069E+00
         3       362       157  -8.1226768E+00
         1       220       111  -3.8562277E+02
         1       220       111  -3.8562277E+02
         1       220       111  -3.8562277E+02
         1       219       111  -3.8562277E+02
         1       220       111  -3.8562277E+02
         1       220       112  -3.8562277E+02
         1       220       111  -3.8562277E+02
         1       220       111  -3.8562277E+02
         1       219       111  -3.8562277E+02
         1       219       111  -3.8562277E+02
         1       219       111  -3.8562277E+02
         2       332       119  -2.5527696E+02
         2       332       119  -2.5527696E+02
         2       332       119  -2.5527696E+02
         1       333       114  -2.5527696E+02
         2       332       118  -2.5527696E+02
         3       334       106  -2.5527696E+02
         2       332       118  -2.5527696E+02
         2       332       118  -2.5527696E+02
         2       332       118  -2.5527696E+02
         1       286       156  -2.1995914E+02
         1       286       156  -2.1995914E+02
         1       286       156  -2.1995914E+02
         1       286       156  -2.1995914E+02
         1       295       156  -2.1995914E+02
         1       295       156  -2.1995914E+02
         1       295       156  -2.1995914E+02
         1       295       156  -2.1995914E+02
         1       286       157  -2.1995914E+02
         1       298       149  -2.1995914E+02
         1       295       157  -2.1995914E+02
         1       295       157  -2.1995914E+02
         1       298       149  -2.1995914E+02
         1       297       149  -2.1995914E+02
         1       297       149  -2.1995914E+02
         1       296       149  -2.1995914E+02
         3       287       155  -2.1995914E+02
         1       295       156  -2.1995914E+02
         1       297       149  -2.1995914E+02
         1       286       156  -2.1995914E+02
         1       335       143  -2.2312279E+02
         1       335       143  -2.2312279E+02
         1       336       142  -2.2312279E+02
         1       293       164  -6.4343427E+02
         1       289       162  -6.4343427E+02
         1       328       148  -1.6169731E+02
         1       328       148  -1.6169731E+02
         1       315       156  -1.7527655E+03
         1       315       156  -1.7527655E+03
         1       315       156  -1.7527655E+03
         1       315       156  -1.7527655E+03
         1       315       156  -1.7527655E+03
         1       314       156  -1.7527655E+03
         3       327       115  -1.0446062E+02
         3       327       115  -1.0446062E+02
         3       327       114  -1.0446062E+02
         1       336       144  -9.8445771E+03
         1       337       145  -9.8445771E+03
         1       337       146  -9.8445771E+03
         2       332       148  -9.8445771E+03
         1       331       148  -9.8445771E+03
         1       335       147  -9.8445771E+03
         1       336       147  -9.8445771E+03
         1       335       147  -9.8445771E+03
         1       336       147  -9.8445771E+03
         1       336       147  -9.8445771E+03
         1       335       147  -9.8445771E+03
         1       335       147  -9.8445771E+03
         3       333       154  -9.8445771E+03
         1       331       149  -9.8445771E+03
         1       331       148  -9.8445771E+03
         1       331       148  -9.8445771E+03
         1       329       149  -9.8445771E+03
         1       329       149  -9.8445771E+03
         1       329       149  -9.8445771E+03
         1       257       141  -1.4803424E+02
         1       257       141  -1.4803424E+02
         1       257       141  -1.4803424E+02
         1       257       142  -1.4803424E+02
         2       334       131  -8.9637108E+00
         2       334       130  -8.9637108E+00
         2       334       130  -8.9637108E+00
         1       334       131  -8.9637108E+00
         3       334       130  -8.9637108E+00
         3       334       130  -8.9637108E+00
         3       333       129  -8.9637108E+00
         1       345       110  -2.0826378E+02
         2       346       109  -2.0826378E+02
         3       329       103  -2.0826378E+02
         1       345       109  -2.0826378E+02
         2       346       109  -2.0826378E+02
         2       348       112  -1.0774038E+02
         1       347       111  -1.0774038E+02
         3       323       113  -1.3093256E+02
         3       312       112  -1.3224455E+00
         3       311       111  -1.3224455E+00
         3       258       115  -1.8560072E+01
         2       254       115  -1.8560072E+01
