# GHB package for  MODFLOW-NWT, generated by Flopy.
       293        55
       293         0 # stress period 1
         3       302       172            20.0         40000.0
         2       303       171            20.0         40000.0
         3       303       171            20.0         40000.0
         3       308       168            20.0         40000.0
         3       309       168            20.0         40000.0
         3       310       167            20.0         40000.0
         3       310       166            17.0         40000.0
         3       311       165            17.0         40000.0
         3       312       161            17.0         40000.0
         3       312       162            17.0         40000.0
         3       312       163            17.0         40000.0
         3       312       164            17.0         40000.0
         3       313       160            17.0         40000.0
         3       314       160            17.0         40000.0
         3       315       160            17.0         40000.0
         3       316       160            17.0         40000.0
         3       317       160            17.0         40000.0
         3       318       160            17.0         40000.0
         3       319       160            17.0         40000.0
         1       320       159            17.0         40000.0
         2       320       159            17.0         40000.0
         3       320       159            17.0         40000.0
         1       321       159            17.0         40000.0
         2       321       159            17.0         40000.0
         3       321       159            17.0         40000.0
         3       322       159            17.0         40000.0
         3       323       159            17.0         40000.0
         3       324       159            17.0         40000.0
         1       325       158            17.0         40000.0
         2       325       158            17.0         40000.0
         3       325       158            17.0         40000.0
         3       326       159            17.0         40000.0
         3       327       158            17.0         40000.0
         1       328       157            17.0         40000.0
         2       328       157            17.0         40000.0
         3       328       157            17.0         40000.0
         1       329       157            17.0         40000.0
         2       329       157            17.0         40000.0
         3       329       157            17.0         40000.0
         1       330       157            17.0         40000.0
         2       330       157            17.0         40000.0
         3       330       157            17.0         40000.0
         2       331       156            10.0         40000.0
         3       331       156            10.0         40000.0
         2       332       156            10.0         40000.0
         3       332       156            10.0         40000.0
         3       333       152            10.0         40000.0
         3       333       153            10.0         40000.0
         3       333       154            10.0         40000.0
         3       333       155            10.0         40000.0
         3       334       150            10.0         40000.0
         3       334       151            10.0         40000.0
         1       335       149            10.0         40000.0
         2       335       149            10.0         40000.0
         3       335       149            10.0         40000.0
         1       336       148            10.0         40000.0
         2       336       148            10.0         40000.0
         3       336       148            10.0         40000.0
         1       337       146            10.0         40000.0
         2       337       146            10.0         40000.0
         3       337       146            10.0         40000.0
         1       337       147            10.0         40000.0
         2       337       147            10.0         40000.0
         3       337       147            10.0         40000.0
         3       338       145            10.0         40000.0
         3       339       145            10.0         40000.0
         2       340       145            10.0         40000.0
         3       340       145            10.0         40000.0
         2       341       146            10.0         40000.0
         3       341       146            10.0         40000.0
         3       342       151            10.0         40000.0
         3       343       151            10.0         40000.0
         2       344       152            10.0         40000.0
         3       344       152            10.0         40000.0
         2       345       152            10.0         40000.0
         3       345       152            10.0         40000.0
         2       346       152            10.0         40000.0
         3       346       152            10.0         40000.0
         2       347       153            10.0         40000.0
         3       347       153            10.0         40000.0
         2       348       154            10.0         40000.0
         3       348       154            10.0         40000.0
         2       349       154            10.0         40000.0
         3       349       154            10.0         40000.0
         2       350       154            10.0         40000.0
         3       350       154            10.0         40000.0
         2       351       154            10.0         40000.0
         3       351       154            10.0         40000.0
         2       352       154            10.0         40000.0
         3       352       154            10.0         40000.0
         2       353       154            10.0         40000.0
         3       353       154            10.0         40000.0
         2       354       154            10.0         40000.0
         3       354       154            10.0         40000.0
         3       355       155            50.0         40000.0
         3       356       155            50.0         40000.0
         2       357       155            50.0         40000.0
         3       357       155            50.0         40000.0
         2       358       155            50.0         40000.0
         3       358       155            50.0         40000.0
         2       359       155            50.0         40000.0
         3       359       155            50.0         40000.0
         2       360       155            50.0         40000.0
         3       360       155            50.0         40000.0
         2       361       156            50.0         40000.0
         3       361       156            50.0         40000.0
         2       361       157            50.0         40000.0
         3       361       157            50.0         40000.0
         2       362       158            50.0         40000.0
         3       362       158            50.0         40000.0
         2       363       159            50.0         40000.0
         3       363       159            50.0         40000.0
         2       364       160            50.0         40000.0
         3       364       160            50.0         40000.0
         2       365       160            50.0         40000.0
         3       365       160            50.0         40000.0
         3       366       160            50.0         40000.0
         2       367       160            50.0         40000.0
         3       367       160            50.0         40000.0
         2       368       160            50.0         40000.0
         3       368       160            50.0         40000.0
         2       369       160            50.0         40000.0
         3       369       160            50.0         40000.0
         2       370       160            50.0         40000.0
         3       370       160            50.0         40000.0
         2       371       160            50.0         40000.0
         3       371       160            50.0         40000.0
         2       372       160            50.0         40000.0
         3       372       160            50.0         40000.0
         3       373       161            50.0         40000.0
         3       374       161            50.0         40000.0
         2       375       161            50.0         40000.0
         3       375       161            50.0         40000.0
         2       376       161            50.0         40000.0
         3       376       161            50.0         40000.0
         2       377       161            50.0         40000.0
         3       377       161            50.0         40000.0
         2       378       161            50.0         40000.0
         3       378       161            50.0         40000.0
         2       379       162            50.0         40000.0
         3       379       162            50.0         40000.0
         2       380       163            50.0         40000.0
         3       380       163            50.0         40000.0
         2       383       163            50.0         40000.0
         3       383       163            50.0         40000.0
         2       384       163            50.0         40000.0
         3       384       163            50.0         40000.0
         2       376       143          225.97             0.0
         3       376       143          225.97             0.0
         2       377       144          225.97             0.0
         3       377       144          225.97             0.0
         2       378       144          225.97             0.0
         3       378       144          225.97             0.0
         2       379       144          225.97             0.0
         3       379       144          225.97             0.0
         2       380       144          225.97             0.0
         3       380       144          225.97             0.0
         2       381       144          225.97             0.0
         3       381       144          225.97             0.0
         2       382       144          225.97             0.0
         3       382       144          225.97             0.0
         2       383       144          225.97             0.0
         3       383       144          225.97             0.0
         2       384       145          225.97             0.0
         3       384       145          225.97             0.0
         2       384       146          225.97             0.0
         3       384       146          225.97             0.0
         2       385       147          225.97             0.0
         3       385       147          225.97             0.0
         2       385       148          225.97             0.0
         3       385       148          225.97             0.0
         2       385       149          225.97             0.0
         3       385       149          225.97             0.0
         2       385       161          225.97             0.0
         3       385       161          225.97             0.0
         2       385       162          225.97             0.0
         3       385       162          225.97             0.0
         2       386       150          225.97             0.0
         3       386       150          225.97             0.0
         2       386       160          225.97             0.0
         3       386       160          225.97             0.0
         2       387       151          225.97             0.0
         3       387       151          225.97             0.0
         2       387       159          225.97             0.0
         3       387       159          225.97             0.0
         3       388       152          225.97             0.0
         2       388       159          225.97             0.0
         3       388       159          225.97             0.0
         3       389       152          225.97             0.0
         3       389       159          225.97             0.0
         3       390       152          225.97             0.0
         2       390       158          225.97             0.0
         3       390       158          225.97             0.0
         3       391       153          225.97             0.0
         2       391       158          225.97             0.0
         3       391       158          225.97             0.0
         3       392       154          225.97             0.0
         3       392       155          225.97             0.0
         2       392       156          225.97             0.0
         3       392       156          225.97             0.0
         2       392       157          225.97             0.0
         3       392       157          225.97             0.0
         3       362       118       325.91376             0.0
         3       363       115       325.91376             0.0
         3       363       116       325.91376             0.0
         3       363       117       325.91376             0.0
         3       363       119       325.91376             0.0
         3       364        89       325.91376             0.0
         3       364        90       325.91376             0.0
         3       364        91       325.91376             0.0
         3       364       114       325.91376             0.0
         3       364       120       325.91376             0.0
         3       364       121       325.91376             0.0
         3       365        92       325.91376             0.0
         3       365       114       325.91376             0.0
         3       365       122       325.91376             0.0
         3       366        92       325.91376             0.0
         3       366       114       325.91376             0.0
         3       366       122       325.91376             0.0
         3       367        93       325.91376             0.0
         3       367        94       325.91376             0.0
         3       367        95       325.91376             0.0
         3       367        96       325.91376             0.0
         3       367        98       325.91376             0.0
         3       367        99       325.91376             0.0
         3       367       100       325.91376             0.0
         3       367       113       325.91376             0.0
         3       367       123       325.91376             0.0
         3       367       124       325.91376             0.0
         3       367       125       325.91376             0.0
         3       368        97       325.91376             0.0
         3       368       101       325.91376             0.0
         3       368       112       325.91376             0.0
         3       368       126       325.91376             0.0
         3       368       127       325.91376             0.0
         3       368       132       325.91376             0.0
         2       368       133       325.91376             0.0
         3       368       133       325.91376             0.0
         3       369       102       325.91376             0.0
         3       369       111       325.91376             0.0
         3       369       128       325.91376             0.0
         3       369       129       325.91376             0.0
         3       369       131       325.91376             0.0
         2       369       134       325.91376             0.0
         3       369       134       325.91376             0.0
         2       369       135       325.91376             0.0
         3       369       135       325.91376             0.0
         3       370       103       325.91376             0.0
         3       370       104       325.91376             0.0
         3       370       108       325.91376             0.0
         3       370       110       325.91376             0.0
         3       370       130       325.91376             0.0
         2       370       136       325.91376             0.0
         3       370       136       325.91376             0.0
         3       371       105       325.91376             0.0
         3       371       106       325.91376             0.0
         3       371       107       325.91376             0.0
         3       371       109       325.91376             0.0
         2       371       137       325.91376             0.0
         3       371       137       325.91376             0.0
         2       371       138       325.91376             0.0
         3       371       138       325.91376             0.0
         2       372       139       325.91376             0.0
         3       372       139       325.91376             0.0
         2       373       139       325.91376             0.0
         3       373       139       325.91376             0.0
         2       374       140       325.91376             0.0
         3       374       140       325.91376             0.0
         2       375       141       325.91376             0.0
         3       375       141       325.91376             0.0
         2       376       142       325.91376             0.0
         3       376       142       325.91376             0.0
         1       356        79       139.40456             0.0
         2       356        79       139.40456             0.0
         3       356        79       139.40456             0.0
         1       357        80       139.40456             0.0
         2       357        80       139.40456             0.0
         3       357        80       139.40456             0.0
         1       358        81       139.40456             0.0
         2       358        81       139.40456             0.0
         3       358        81       139.40456             0.0
         1       359        81       139.40456             0.0
         2       359        81       139.40456             0.0
         3       359        81       139.40456             0.0
         1       360        82       139.40456             0.0
         2       360        82       139.40456             0.0
         3       360        82       139.40456             0.0
         3       361        83       139.40456             0.0
         3       361        84       139.40456             0.0
         3       362        85       139.40456             0.0
         3       363        86       139.40456             0.0
         3       363        87       139.40456             0.0
         3       363        88       139.40456             0.0
